MODEL 1
REMARK VINA RESULT:      -4.9      0.000      0.000
REMARK  3 active torsions:
REMARK  status: ('A' for Active; 'I' for Inactive)
REMARK       I    between atoms: C_2  and  N_4 
REMARK    1  A    between atoms: N_4  and  C_5 
REMARK    2  A    between atoms: C_5  and  C_6 
REMARK    3  A    between atoms: C_6  and  O_7 
ROOT
HETATM    1  C   UNL     1     -23.001  -3.584 -10.119  1.00  0.00     0.117 C 
HETATM    2  C   UNL     1     -24.192  -3.252 -10.977  1.00  0.00     0.213 C 
HETATM    3  O   UNL     1     -25.337  -3.238 -10.544  1.00  0.00    -0.274 OA
HETATM    4  N   UNL     1     -23.863  -2.969 -12.282  1.00  0.00    -0.359 N 
HETATM    5  H   UNL     1     -22.893  -2.969 -12.570  1.00  0.00     0.162 HD
ENDROOT
BRANCH   4   6
HETATM    6  C   UNL     1     -24.881  -2.658 -13.275  1.00  0.00     0.148 C 
BRANCH   6   7
HETATM    7  C   UNL     1     -24.303  -1.908 -14.472  1.00  0.00     0.183 C 
BRANCH   7   8
HETATM    8  O   UNL     1     -24.997  -0.672 -14.654  1.00  0.00    -0.399 OA
HETATM    9  H   UNL     1     -25.815  -0.746 -14.132  1.00  0.00     0.209 HD
ENDBRANCH   7   8
ENDBRANCH   6   7
ENDBRANCH   4   6
TORSDOF 3
BEGIN_RES ARG D 557
REMARK  4 active torsions:
REMARK  status: ('A' for Active; 'I' for Inactive)
REMARK    1  A    between atoms: CA   and  CB  
REMARK    2  A    between atoms: CB   and  CG  
REMARK    3  A    between atoms: CG   and  CD  
REMARK    4  A    between atoms: CD   and  NE  
REMARK       I    between atoms: NE   and  CZ  
REMARK       I    between atoms: CZ   and  NH1 
REMARK       I    between atoms: CZ   and  NH2 
ROOT
ATOM      1  CA  ARG D 557     -26.217   2.705 -17.014  1.00 35.49     0.159 C 
ENDROOT
BRANCH   1   2
ATOM      2  CB  ARG D 557     -26.789   1.319 -17.183  1.00 35.49     0.034 C 
BRANCH   2   3
ATOM      3  CG  ARG D 557     -28.226   1.228 -17.469  1.00 35.49     0.027 C 
BRANCH   3   4
ATOM      4  CD  ARG D 557     -28.932   0.326 -16.530  1.00 35.49     0.116 C 
BRANCH   4   5
ATOM      5  NE  ARG D 557     -29.248  -0.943 -17.132  1.00 35.49    -0.212 N 
ATOM      6  CZ  ARG D 557     -28.563  -2.055 -16.984  1.00 35.49     0.666 C 
ATOM      7  NH1 ARG D 557     -27.465  -2.120 -16.253  1.00 35.49    -0.235 N 
ATOM      8  NH2 ARG D 557     -29.008  -3.119 -17.587  1.00 35.49    -0.235 N 
ATOM      9  HH  ARG D 557     -27.155  -1.433 -15.846  1.00 35.49     0.174 HD
ATOM     10  HH  ARG D 557     -27.062  -2.873 -16.191  1.00 35.49     0.174 HD
ATOM     11  HH  ARG D 557     -29.723  -3.049 -18.047  1.00 35.49     0.174 HD
ATOM     12  HH  ARG D 557     -28.595  -3.856 -17.512  1.00 35.49     0.174 HD
ATOM     13  HE  ARG D 557     -29.899  -0.975 -17.678  1.00 35.49     0.178 HD
ENDBRANCH   4   5
ENDBRANCH   3   4
ENDBRANCH   2   3
ENDBRANCH   1   2
END_RES ARG D 557
BEGIN_RES GLU D 570
REMARK  3 active torsions:
REMARK  status: ('A' for Active; 'I' for Inactive)
REMARK    5  A    between atoms: CA   and  CB  
REMARK    6  A    between atoms: CB   and  CG  
REMARK    7  A    between atoms: CG   and  CD  
ROOT
ATOM     14  CA  GLU D 570     -18.033  -6.348 -13.375  1.00 32.92     0.160 C 
ENDROOT
BRANCH  14  15
ATOM     15  CB  GLU D 570     -19.500  -6.345 -13.794  1.00 32.92     0.043 C 
BRANCH  15  16
ATOM     16  CG  GLU D 570     -20.430  -5.481 -13.023  1.00 32.92     0.100 C 
BRANCH  16  17
ATOM     17  CD  GLU D 570     -21.730  -5.219 -13.748  1.00 32.92     0.185 C 
ATOM     18  OE1 GLU D 570     -22.803  -5.536 -13.200  1.00 32.92    -0.647 OA
ATOM     19  OE2 GLU D 570     -21.673  -4.708 -14.884  1.00 32.92    -0.647 OA
ENDBRANCH  16  17
ENDBRANCH  15  16
ENDBRANCH  14  15
END_RES GLU D 570
ENDMDL
MODEL 2
REMARK VINA RESULT:      -4.5      2.780      3.852
REMARK  3 active torsions:
REMARK  status: ('A' for Active; 'I' for Inactive)
REMARK       I    between atoms: C_2  and  N_4 
REMARK    1  A    between atoms: N_4  and  C_5 
REMARK    2  A    between atoms: C_5  and  C_6 
REMARK    3  A    between atoms: C_6  and  O_7 
ROOT
HETATM    1  C   UNL     1     -20.293  -4.155  -8.948  1.00  0.00     0.117 C 
HETATM    2  C   UNL     1     -21.790  -4.300  -8.888  1.00  0.00     0.213 C 
HETATM    3  O   UNL     1     -22.417  -4.271  -7.838  1.00  0.00    -0.274 OA
HETATM    4  N   UNL     1     -22.372  -4.467 -10.123  1.00  0.00    -0.359 N 
HETATM    5  H   UNL     1     -21.800  -4.452 -10.957  1.00  0.00     0.162 HD
ENDROOT
BRANCH   4   6
HETATM    6  C   UNL     1     -23.808  -4.658 -10.270  1.00  0.00     0.148 C 
BRANCH   6   7
HETATM    7  C   UNL     1     -24.559  -3.331 -10.339  1.00  0.00     0.183 C 
BRANCH   7   8
HETATM    8  O   UNL     1     -24.952  -2.925  -9.027  1.00  0.00    -0.399 OA
HETATM    9  H   UNL     1     -25.825  -3.325  -8.874  1.00  0.00     0.209 HD
ENDBRANCH   7   8
ENDBRANCH   6   7
ENDBRANCH   4   6
TORSDOF 3
BEGIN_RES ARG D 557
REMARK  4 active torsions:
REMARK  status: ('A' for Active; 'I' for Inactive)
REMARK    1  A    between atoms: CA   and  CB  
REMARK    2  A    between atoms: CB   and  CG  
REMARK    3  A    between atoms: CG   and  CD  
REMARK    4  A    between atoms: CD   and  NE  
REMARK       I    between atoms: NE   and  CZ  
REMARK       I    between atoms: CZ   and  NH1 
REMARK       I    between atoms: CZ   and  NH2 
ROOT
ATOM      1  CA  ARG D 557     -26.217   2.705 -17.014  1.00 35.49     0.159 C 
ENDROOT
BRANCH   1   2
ATOM      2  CB  ARG D 557     -26.789   1.319 -17.183  1.00 35.49     0.034 C 
BRANCH   2   3
ATOM      3  CG  ARG D 557     -25.837   0.202 -17.148  1.00 35.49     0.027 C 
BRANCH   3   4
ATOM      4  CD  ARG D 557     -24.759   0.411 -16.154  1.00 35.49     0.116 C 
BRANCH   4   5
ATOM      5  NE  ARG D 557     -24.914  -0.434 -15.000  1.00 35.49    -0.212 N 
ATOM      6  CZ  ARG D 557     -24.124  -1.429 -14.665  1.00 35.49     0.666 C 
ATOM      7  NH1 ARG D 557     -23.075  -1.777 -15.388  1.00 35.49    -0.235 N 
ATOM      8  NH2 ARG D 557     -24.404  -2.076 -13.571  1.00 35.49    -0.235 N 
ATOM      9  HH  ARG D 557     -22.871  -1.364 -16.111  1.00 35.49     0.174 HD
ATOM     10  HH  ARG D 557     -22.594  -2.433 -15.119  1.00 35.49     0.174 HD
ATOM     11  HH  ARG D 557     -25.083  -1.825 -13.120  1.00 35.49     0.174 HD
ATOM     12  HH  ARG D 557     -23.915  -2.722 -13.320  1.00 35.49     0.174 HD
ATOM     13  HE  ARG D 557     -25.605  -0.327 -14.517  1.00 35.49     0.178 HD
ENDBRANCH   4   5
ENDBRANCH   3   4
ENDBRANCH   2   3
ENDBRANCH   1   2
END_RES ARG D 557
BEGIN_RES GLU D 570
REMARK  3 active torsions:
REMARK  status: ('A' for Active; 'I' for Inactive)
REMARK    5  A    between atoms: CA   and  CB  
REMARK    6  A    between atoms: CB   and  CG  
REMARK    7  A    between atoms: CG   and  CD  
ROOT
ATOM     14  CA  GLU D 570     -18.033  -6.348 -13.375  1.00 32.92     0.160 C 
ENDROOT
BRANCH  14  15
ATOM     15  CB  GLU D 570     -19.500  -6.345 -13.794  1.00 32.92     0.043 C 
BRANCH  15  16
ATOM     16  CG  GLU D 570     -20.448  -5.562 -12.961  1.00 32.92     0.100 C 
BRANCH  16  17
ATOM     17  CD  GLU D 570     -21.713  -5.190 -13.699  1.00 32.92     0.185 C 
ATOM     18  OE1 GLU D 570     -22.341  -4.172 -13.350  1.00 32.92    -0.647 OA
ATOM     19  OE2 GLU D 570     -22.090  -5.935 -14.625  1.00 32.92    -0.647 OA
ENDBRANCH  16  17
ENDBRANCH  15  16
ENDBRANCH  14  15
END_RES GLU D 570
ENDMDL
MODEL 3
REMARK VINA RESULT:      -4.4      2.768      3.709
REMARK  3 active torsions:
REMARK  status: ('A' for Active; 'I' for Inactive)
REMARK       I    between atoms: C_2  and  N_4 
REMARK    1  A    between atoms: N_4  and  C_5 
REMARK    2  A    between atoms: C_5  and  C_6 
REMARK    3  A    between atoms: C_6  and  O_7 
ROOT
HETATM    1  C   UNL     1     -22.827  -4.743 -13.163  1.00  0.00     0.117 C 
HETATM    2  C   UNL     1     -23.884  -4.886 -14.224  1.00  0.00     0.213 C 
HETATM    3  O   UNL     1     -24.492  -3.930 -14.688  1.00  0.00    -0.274 OA
HETATM    4  N   UNL     1     -24.093  -6.188 -14.615  1.00  0.00    -0.359 N 
HETATM    5  H   UNL     1     -23.536  -6.932 -14.214  1.00  0.00     0.162 HD
ENDROOT
BRANCH   4   6
HETATM    6  C   UNL     1     -25.099  -6.535 -15.608  1.00  0.00     0.148 C 
BRANCH   6   7
HETATM    7  C   UNL     1     -24.494  -7.255 -16.810  1.00  0.00     0.183 C 
BRANCH   7   8
HETATM    8  O   UNL     1     -24.099  -8.577 -16.439  1.00  0.00    -0.399 OA
HETATM    9  H   UNL     1     -23.935  -9.050 -17.273  1.00  0.00     0.209 HD
ENDBRANCH   7   8
ENDBRANCH   6   7
ENDBRANCH   4   6
TORSDOF 3
BEGIN_RES ARG D 557
REMARK  4 active torsions:
REMARK  status: ('A' for Active; 'I' for Inactive)
REMARK    1  A    between atoms: CA   and  CB  
REMARK    2  A    between atoms: CB   and  CG  
REMARK    3  A    between atoms: CG   and  CD  
REMARK    4  A    between atoms: CD   and  NE  
REMARK       I    between atoms: NE   and  CZ  
REMARK       I    between atoms: CZ   and  NH1 
REMARK       I    between atoms: CZ   and  NH2 
ROOT
ATOM      1  CA  ARG D 557     -26.217   2.705 -17.014  1.00 35.49     0.159 C 
ENDROOT
BRANCH   1   2
ATOM      2  CB  ARG D 557     -26.789   1.319 -17.183  1.00 35.49     0.034 C 
BRANCH   2   3
ATOM      3  CG  ARG D 557     -28.200   1.138 -16.819  1.00 35.49     0.027 C 
BRANCH   3   4
ATOM      4  CD  ARG D 557     -28.699  -0.216 -17.154  1.00 35.49     0.116 C 
BRANCH   4   5
ATOM      5  NE  ARG D 557     -27.920  -1.251 -16.529  1.00 35.49    -0.212 N 
ATOM      6  CZ  ARG D 557     -28.094  -2.545 -16.686  1.00 35.49     0.666 C 
ATOM      7  NH1 ARG D 557     -29.047  -3.044 -17.451  1.00 35.49    -0.235 N 
ATOM      8  NH2 ARG D 557     -27.279  -3.341 -16.057  1.00 35.49    -0.235 N 
ATOM      9  HH  ARG D 557     -29.593  -2.539 -17.876  1.00 35.49     0.174 HD
ATOM     10  HH  ARG D 557     -29.110  -3.896 -17.518  1.00 35.49     0.174 HD
ATOM     11  HH  ARG D 557     -26.668  -2.990 -15.576  1.00 35.49     0.174 HD
ATOM     12  HH  ARG D 557     -27.357  -4.181 -16.137  1.00 35.49     0.174 HD
ATOM     13  HE  ARG D 557     -27.330  -1.020 -15.962  1.00 35.49     0.178 HD
ENDBRANCH   4   5
ENDBRANCH   3   4
ENDBRANCH   2   3
ENDBRANCH   1   2
END_RES ARG D 557
BEGIN_RES GLU D 570
REMARK  3 active torsions:
REMARK  status: ('A' for Active; 'I' for Inactive)
REMARK    5  A    between atoms: CA   and  CB  
REMARK    6  A    between atoms: CB   and  CG  
REMARK    7  A    between atoms: CG   and  CD  
ROOT
ATOM     14  CA  GLU D 570     -18.033  -6.348 -13.375  1.00 32.92     0.160 C 
ENDROOT
BRANCH  14  15
ATOM     15  CB  GLU D 570     -19.500  -6.345 -13.794  1.00 32.92     0.043 C 
BRANCH  15  16
ATOM     16  CG  GLU D 570     -20.091  -7.638 -14.226  1.00 32.92     0.100 C 
BRANCH  16  17
ATOM     17  CD  GLU D 570     -20.856  -7.532 -15.525  1.00 32.92     0.185 C 
ATOM     18  OE1 GLU D 570     -21.097  -8.569 -16.172  1.00 32.92    -0.647 OA
ATOM     19  OE2 GLU D 570     -21.202  -6.397 -15.908  1.00 32.92    -0.647 OA
ENDBRANCH  16  17
ENDBRANCH  15  16
ENDBRANCH  14  15
END_RES GLU D 570
ENDMDL
MODEL 4
REMARK VINA RESULT:      -4.2      6.465      7.705
REMARK  3 active torsions:
REMARK  status: ('A' for Active; 'I' for Inactive)
REMARK       I    between atoms: C_2  and  N_4 
REMARK    1  A    between atoms: N_4  and  C_5 
REMARK    2  A    between atoms: C_5  and  C_6 
REMARK    3  A    between atoms: C_6  and  O_7 
ROOT
HETATM    1  C   UNL     1     -33.481  -4.109 -11.113  1.00  0.00     0.117 C 
HETATM    2  C   UNL     1     -34.267  -5.380 -11.288  1.00  0.00     0.213 C 
HETATM    3  O   UNL     1     -34.898  -5.635 -12.306  1.00  0.00    -0.274 OA
HETATM    4  N   UNL     1     -34.203  -6.217 -10.199  1.00  0.00    -0.359 N 
HETATM    5  H   UNL     1     -33.639  -5.962  -9.398  1.00  0.00     0.162 HD
ENDROOT
BRANCH   4   6
HETATM    6  C   UNL     1     -34.925  -7.481 -10.164  1.00  0.00     0.148 C 
BRANCH   6   7
HETATM    7  C   UNL     1     -34.098  -8.595  -9.527  1.00  0.00     0.183 C 
BRANCH   7   8
HETATM    8  O   UNL     1     -33.371  -9.300 -10.535  1.00  0.00    -0.399 OA
HETATM    9  H   UNL     1     -33.530 -10.245 -10.367  1.00  0.00     0.209 HD
ENDBRANCH   7   8
ENDBRANCH   6   7
ENDBRANCH   4   6
TORSDOF 3
BEGIN_RES ARG D 557
REMARK  4 active torsions:
REMARK  status: ('A' for Active; 'I' for Inactive)
REMARK    1  A    between atoms: CA   and  CB  
REMARK    2  A    between atoms: CB   and  CG  
REMARK    3  A    between atoms: CG   and  CD  
REMARK    4  A    between atoms: CD   and  NE  
REMARK       I    between atoms: NE   and  CZ  
REMARK       I    between atoms: CZ   and  NH1 
REMARK       I    between atoms: CZ   and  NH2 
ROOT
ATOM      1  CA  ARG D 557     -26.217   2.705 -17.014  1.00 35.49     0.159 C 
ENDROOT
BRANCH   1   2
ATOM      2  CB  ARG D 557     -26.789   1.319 -17.183  1.00 35.49     0.034 C 
BRANCH   2   3
ATOM      3  CG  ARG D 557     -25.859   0.196 -17.014  1.00 35.49     0.027 C 
BRANCH   3   4
ATOM      4  CD  ARG D 557     -26.255  -0.703 -15.905  1.00 35.49     0.116 C 
BRANCH   4   5
ATOM      5  NE  ARG D 557     -25.193  -0.886 -14.951  1.00 35.49    -0.212 N 
ATOM      6  CZ  ARG D 557     -24.882  -2.016 -14.356  1.00 35.49     0.666 C 
ATOM      7  NH1 ARG D 557     -25.546  -3.137 -14.571  1.00 35.49    -0.235 N 
ATOM      8  NH2 ARG D 557     -23.874  -2.004 -13.534  1.00 35.49    -0.235 N 
ATOM      9  HH  ARG D 557     -26.212  -3.168 -15.109  1.00 35.49     0.174 HD
ATOM     10  HH  ARG D 557     -25.296  -3.844 -14.156  1.00 35.49     0.174 HD
ATOM     11  HH  ARG D 557     -23.459  -1.267 -13.421  1.00 35.49     0.174 HD
ATOM     12  HH  ARG D 557     -23.640  -2.714 -13.134  1.00 35.49     0.174 HD
ATOM     13  HE  ARG D 557     -24.760  -0.200 -14.699  1.00 35.49     0.178 HD
ENDBRANCH   4   5
ENDBRANCH   3   4
ENDBRANCH   2   3
ENDBRANCH   1   2
END_RES ARG D 557
BEGIN_RES GLU D 570
REMARK  3 active torsions:
REMARK  status: ('A' for Active; 'I' for Inactive)
REMARK    5  A    between atoms: CA   and  CB  
REMARK    6  A    between atoms: CB   and  CG  
REMARK    7  A    between atoms: CG   and  CD  
ROOT
ATOM     14  CA  GLU D 570     -18.033  -6.348 -13.375  1.00 32.92     0.160 C 
ENDROOT
BRANCH  14  15
ATOM     15  CB  GLU D 570     -19.500  -6.345 -13.794  1.00 32.92     0.043 C 
BRANCH  15  16
ATOM     16  CG  GLU D 570     -20.448  -5.558 -12.963  1.00 32.92     0.100 C 
BRANCH  16  17
ATOM     17  CD  GLU D 570     -21.669  -5.107 -13.730  1.00 32.92     0.185 C 
ATOM     18  OE1 GLU D 570     -22.705  -4.815 -13.101  1.00 32.92    -0.647 OA
ATOM     19  OE2 GLU D 570     -21.595  -5.060 -14.973  1.00 32.92    -0.647 OA
ENDBRANCH  16  17
ENDBRANCH  15  16
ENDBRANCH  14  15
END_RES GLU D 570
ENDMDL
MODEL 5
REMARK VINA RESULT:      -4.2      1.680      2.055
REMARK  3 active torsions:
REMARK  status: ('A' for Active; 'I' for Inactive)
REMARK       I    between atoms: C_2  and  N_4 
REMARK    1  A    between atoms: N_4  and  C_5 
REMARK    2  A    between atoms: C_5  and  C_6 
REMARK    3  A    between atoms: C_6  and  O_7 
ROOT
HETATM    1  C   UNL     1     -24.708  -3.312  -9.603  1.00  0.00     0.117 C 
HETATM    2  C   UNL     1     -23.916  -3.864 -10.757  1.00  0.00     0.213 C 
HETATM    3  O   UNL     1     -23.740  -5.064 -10.927  1.00  0.00    -0.274 OA
HETATM    4  N   UNL     1     -23.417  -2.892 -11.592  1.00  0.00    -0.359 N 
HETATM    5  H   UNL     1     -23.623  -1.918 -11.413  1.00  0.00     0.162 HD
ENDROOT
BRANCH   4   6
HETATM    6  C   UNL     1     -22.595  -3.225 -12.746  1.00  0.00     0.148 C 
BRANCH   6   7
HETATM    7  C   UNL     1     -23.176  -2.667 -14.043  1.00  0.00     0.183 C 
BRANCH   7   8
HETATM    8  O   UNL     1     -23.820  -3.710 -14.777  1.00  0.00    -0.399 OA
HETATM    9  H   UNL     1     -24.772  -3.610 -14.603  1.00  0.00     0.209 HD
ENDBRANCH   7   8
ENDBRANCH   6   7
ENDBRANCH   4   6
TORSDOF 3
BEGIN_RES ARG D 557
REMARK  4 active torsions:
REMARK  status: ('A' for Active; 'I' for Inactive)
REMARK    1  A    between atoms: CA   and  CB  
REMARK    2  A    between atoms: CB   and  CG  
REMARK    3  A    between atoms: CG   and  CD  
REMARK    4  A    between atoms: CD   and  NE  
REMARK       I    between atoms: NE   and  CZ  
REMARK       I    between atoms: CZ   and  NH1 
REMARK       I    between atoms: CZ   and  NH2 
ROOT
ATOM      1  CA  ARG D 557     -26.217   2.705 -17.014  1.00 35.49     0.159 C 
ENDROOT
BRANCH   1   2
ATOM      2  CB  ARG D 557     -26.789   1.319 -17.183  1.00 35.49     0.034 C 
BRANCH   2   3
ATOM      3  CG  ARG D 557     -28.242   1.181 -17.030  1.00 35.49     0.027 C 
BRANCH   3   4
ATOM      4  CD  ARG D 557     -28.654  -0.221 -16.792  1.00 35.49     0.116 C 
BRANCH   4   5
ATOM      5  NE  ARG D 557     -27.658  -0.963 -16.064  1.00 35.49    -0.212 N 
ATOM      6  CZ  ARG D 557     -27.466  -2.261 -16.130  1.00 35.49     0.666 C 
ATOM      7  NH1 ARG D 557     -28.205  -3.049 -16.889  1.00 35.49    -0.235 N 
ATOM      8  NH2 ARG D 557     -26.501  -2.763 -15.416  1.00 35.49    -0.235 N 
ATOM      9  HH  ARG D 557     -28.844  -2.741 -17.369  1.00 35.49     0.174 HD
ATOM     10  HH  ARG D 557     -28.032  -3.889 -16.894  1.00 35.49     0.174 HD
ATOM     11  HH  ARG D 557     -26.035  -2.229 -14.941  1.00 35.49     0.174 HD
ATOM     12  HH  ARG D 557     -26.344  -3.596 -15.436  1.00 35.49     0.174 HD
ATOM     13  HE  ARG D 557     -27.184  -0.544 -15.496  1.00 35.49     0.178 HD
ENDBRANCH   4   5
ENDBRANCH   3   4
ENDBRANCH   2   3
ENDBRANCH   1   2
END_RES ARG D 557
BEGIN_RES GLU D 570
REMARK  3 active torsions:
REMARK  status: ('A' for Active; 'I' for Inactive)
REMARK    5  A    between atoms: CA   and  CB  
REMARK    6  A    between atoms: CB   and  CG  
REMARK    7  A    between atoms: CG   and  CD  
ROOT
ATOM     14  CA  GLU D 570     -18.033  -6.348 -13.375  1.00 32.92     0.160 C 
ENDROOT
BRANCH  14  15
ATOM     15  CB  GLU D 570     -19.500  -6.345 -13.794  1.00 32.92     0.043 C 
BRANCH  15  16
ATOM     16  CG  GLU D 570     -19.803  -6.069 -15.222  1.00 32.92     0.100 C 
BRANCH  16  17
ATOM     17  CD  GLU D 570     -21.254  -5.718 -15.459  1.00 32.92     0.185 C 
ATOM     18  OE1 GLU D 570     -21.547  -4.967 -16.410  1.00 32.92    -0.647 OA
ATOM     19  OE2 GLU D 570     -22.104  -6.184 -14.676  1.00 32.92    -0.647 OA
ENDBRANCH  16  17
ENDBRANCH  15  16
ENDBRANCH  14  15
END_RES GLU D 570
ENDMDL
MODEL 6
REMARK VINA RESULT:      -4.2      3.049      5.180
REMARK  3 active torsions:
REMARK  status: ('A' for Active; 'I' for Inactive)
REMARK       I    between atoms: C_2  and  N_4 
REMARK    1  A    between atoms: N_4  and  C_5 
REMARK    2  A    between atoms: C_5  and  C_6 
REMARK    3  A    between atoms: C_6  and  O_7 
ROOT
HETATM    1  C   UNL     1     -28.389  -5.879 -18.254  1.00  0.00     0.117 C 
HETATM    2  C   UNL     1     -27.389  -5.662 -17.151  1.00  0.00     0.213 C 
HETATM    3  O   UNL     1     -27.349  -4.637 -16.484  1.00  0.00    -0.274 OA
HETATM    4  N   UNL     1     -26.534  -6.725 -16.972  1.00  0.00    -0.359 N 
HETATM    5  H   UNL     1     -26.638  -7.558 -17.537  1.00  0.00     0.162 HD
ENDROOT
BRANCH   4   6
HETATM    6  C   UNL     1     -25.474  -6.692 -15.975  1.00  0.00     0.148 C 
BRANCH   6   7
HETATM    7  C   UNL     1     -24.242  -7.475 -16.422  1.00  0.00     0.183 C 
BRANCH   7   8
HETATM    8  O   UNL     1     -23.259  -6.580 -16.945  1.00  0.00    -0.399 OA
HETATM    9  H   UNL     1     -22.704  -7.112 -17.540  1.00  0.00     0.209 HD
ENDBRANCH   7   8
ENDBRANCH   6   7
ENDBRANCH   4   6
TORSDOF 3
BEGIN_RES ARG D 557
REMARK  4 active torsions:
REMARK  status: ('A' for Active; 'I' for Inactive)
REMARK    1  A    between atoms: CA   and  CB  
REMARK    2  A    between atoms: CB   and  CG  
REMARK    3  A    between atoms: CG   and  CD  
REMARK    4  A    between atoms: CD   and  NE  
REMARK       I    between atoms: NE   and  CZ  
REMARK       I    between atoms: CZ   and  NH1 
REMARK       I    between atoms: CZ   and  NH2 
ROOT
ATOM      1  CA  ARG D 557     -26.217   2.705 -17.014  1.00 35.49     0.159 C 
ENDROOT
BRANCH   1   2
ATOM      2  CB  ARG D 557     -26.789   1.319 -17.183  1.00 35.49     0.034 C 
BRANCH   2   3
ATOM      3  CG  ARG D 557     -25.862   0.195 -17.004  1.00 35.49     0.027 C 
BRANCH   3   4
ATOM      4  CD  ARG D 557     -26.290  -0.724 -15.925  1.00 35.49     0.116 C 
BRANCH   4   5
ATOM      5  NE  ARG D 557     -25.262  -0.918 -14.938  1.00 35.49    -0.212 N 
ATOM      6  CZ  ARG D 557     -24.962  -2.057 -14.354  1.00 35.49     0.666 C 
ATOM      7  NH1 ARG D 557     -25.608  -3.179 -14.615  1.00 35.49    -0.235 N 
ATOM      8  NH2 ARG D 557     -23.984  -2.053 -13.497  1.00 35.49    -0.235 N 
ATOM      9  HH  ARG D 557     -26.254  -3.205 -15.178  1.00 35.49     0.174 HD
ATOM     10  HH  ARG D 557     -25.367  -3.892 -14.206  1.00 35.49     0.174 HD
ATOM     11  HH  ARG D 557     -23.580  -1.316 -13.354  1.00 35.49     0.174 HD
ATOM     12  HH  ARG D 557     -23.759  -2.770 -13.103  1.00 35.49     0.174 HD
ATOM     13  HE  ARG D 557     -24.844  -0.233 -14.657  1.00 35.49     0.178 HD
ENDBRANCH   4   5
ENDBRANCH   3   4
ENDBRANCH   2   3
ENDBRANCH   1   2
END_RES ARG D 557
BEGIN_RES GLU D 570
REMARK  3 active torsions:
REMARK  status: ('A' for Active; 'I' for Inactive)
REMARK    5  A    between atoms: CA   and  CB  
REMARK    6  A    between atoms: CB   and  CG  
REMARK    7  A    between atoms: CG   and  CD  
ROOT
ATOM     14  CA  GLU D 570     -18.033  -6.348 -13.375  1.00 32.92     0.160 C 
ENDROOT
BRANCH  14  15
ATOM     15  CB  GLU D 570     -19.500  -6.345 -13.794  1.00 32.92     0.043 C 
BRANCH  15  16
ATOM     16  CG  GLU D 570     -20.450  -5.571 -12.954  1.00 32.92     0.100 C 
BRANCH  16  17
ATOM     17  CD  GLU D 570     -21.684  -5.134 -13.710  1.00 32.92     0.185 C 
ATOM     18  OE1 GLU D 570     -21.671  -5.161 -14.956  1.00 32.92    -0.647 OA
ATOM     19  OE2 GLU D 570     -22.667  -4.745 -13.049  1.00 32.92    -0.647 OA
ENDBRANCH  16  17
ENDBRANCH  15  16
ENDBRANCH  14  15
END_RES GLU D 570
ENDMDL
MODEL 7
REMARK VINA RESULT:      -4.1      5.583      7.335
REMARK  3 active torsions:
REMARK  status: ('A' for Active; 'I' for Inactive)
REMARK       I    between atoms: C_2  and  N_4 
REMARK    1  A    between atoms: N_4  and  C_5 
REMARK    2  A    between atoms: C_5  and  C_6 
REMARK    3  A    between atoms: C_6  and  O_7 
ROOT
HETATM    1  C   UNL     1     -33.517  -2.393 -10.815  1.00  0.00     0.117 C 
HETATM    2  C   UNL     1     -34.645  -1.967 -11.715  1.00  0.00     0.213 C 
HETATM    3  O   UNL     1     -35.429  -2.762 -12.218  1.00  0.00    -0.274 OA
HETATM    4  N   UNL     1     -34.703  -0.607 -11.912  1.00  0.00    -0.359 N 
HETATM    5  H   UNL     1     -34.043  -0.001 -11.444  1.00  0.00     0.162 HD
ENDROOT
BRANCH   4   6
HETATM    6  C   UNL     1     -35.705  -0.004 -12.779  1.00  0.00     0.148 C 
BRANCH   6   7
HETATM    7  C   UNL     1     -35.229   0.089 -14.226  1.00  0.00     0.183 C 
BRANCH   7   8
HETATM    8  O   UNL     1     -35.358  -1.183 -14.865  1.00  0.00    -0.399 OA
HETATM    9  H   UNL     1     -35.388  -1.839 -14.148  1.00  0.00     0.209 HD
ENDBRANCH   7   8
ENDBRANCH   6   7
ENDBRANCH   4   6
TORSDOF 3
BEGIN_RES ARG D 557
REMARK  4 active torsions:
REMARK  status: ('A' for Active; 'I' for Inactive)
REMARK    1  A    between atoms: CA   and  CB  
REMARK    2  A    between atoms: CB   and  CG  
REMARK    3  A    between atoms: CG   and  CD  
REMARK    4  A    between atoms: CD   and  NE  
REMARK       I    between atoms: NE   and  CZ  
REMARK       I    between atoms: CZ   and  NH1 
REMARK       I    between atoms: CZ   and  NH2 
ROOT
ATOM      1  CA  ARG D 557     -26.217   2.705 -17.014  1.00 35.49     0.159 C 
ENDROOT
BRANCH   1   2
ATOM      2  CB  ARG D 557     -26.789   1.319 -17.183  1.00 35.49     0.034 C 
BRANCH   2   3
ATOM      3  CG  ARG D 557     -25.865   0.195 -16.991  1.00 35.49     0.027 C 
BRANCH   3   4
ATOM      4  CD  ARG D 557     -26.291  -0.706 -15.896  1.00 35.49     0.116 C 
BRANCH   4   5
ATOM      5  NE  ARG D 557     -25.243  -0.922 -14.933  1.00 35.49    -0.212 N 
ATOM      6  CZ  ARG D 557     -24.960  -2.066 -14.351  1.00 35.49     0.666 C 
ATOM      7  NH1 ARG D 557     -25.642  -3.171 -14.588  1.00 35.49    -0.235 N 
ATOM      8  NH2 ARG D 557     -23.960  -2.084 -13.518  1.00 35.49    -0.235 N 
ATOM      9  HH  ARG D 557     -26.302  -3.183 -15.134  1.00 35.49     0.174 HD
ATOM     10  HH  ARG D 557     -25.410  -3.888 -14.181  1.00 35.49     0.174 HD
ATOM     11  HH  ARG D 557     -23.533  -1.357 -13.390  1.00 35.49     0.174 HD
ATOM     12  HH  ARG D 557     -23.745  -2.804 -13.126  1.00 35.49     0.174 HD
ATOM     13  HE  ARG D 557     -24.800  -0.247 -14.667  1.00 35.49     0.178 HD
ENDBRANCH   4   5
ENDBRANCH   3   4
ENDBRANCH   2   3
ENDBRANCH   1   2
END_RES ARG D 557
BEGIN_RES GLU D 570
REMARK  3 active torsions:
REMARK  status: ('A' for Active; 'I' for Inactive)
REMARK    5  A    between atoms: CA   and  CB  
REMARK    6  A    between atoms: CB   and  CG  
REMARK    7  A    between atoms: CG   and  CD  
ROOT
ATOM     14  CA  GLU D 570     -18.033  -6.348 -13.375  1.00 32.92     0.160 C 
ENDROOT
BRANCH  14  15
ATOM     15  CB  GLU D 570     -19.500  -6.345 -13.794  1.00 32.92     0.043 C 
BRANCH  15  16
ATOM     16  CG  GLU D 570     -20.450  -5.572 -12.953  1.00 32.92     0.100 C 
BRANCH  16  17
ATOM     17  CD  GLU D 570     -21.680  -5.128 -13.711  1.00 32.92     0.185 C 
ATOM     18  OE1 GLU D 570     -22.726  -4.886 -13.078  1.00 32.92    -0.647 OA
ATOM     19  OE2 GLU D 570     -21.602  -5.037 -14.952  1.00 32.92    -0.647 OA
ENDBRANCH  16  17
ENDBRANCH  15  16
ENDBRANCH  14  15
END_RES GLU D 570
ENDMDL
MODEL 8
REMARK VINA RESULT:      -4.1      2.831      4.638
REMARK  3 active torsions:
REMARK  status: ('A' for Active; 'I' for Inactive)
REMARK       I    between atoms: C_2  and  N_4 
REMARK    1  A    between atoms: N_4  and  C_5 
REMARK    2  A    between atoms: C_5  and  C_6 
REMARK    3  A    between atoms: C_6  and  O_7 
ROOT
HETATM    1  C   UNL     1     -24.828  -3.412  -9.826  1.00  0.00     0.117 C 
HETATM    2  C   UNL     1     -23.601  -4.082  -9.268  1.00  0.00     0.213 C 
HETATM    3  O   UNL     1     -22.761  -4.623  -9.976  1.00  0.00    -0.274 OA
HETATM    4  N   UNL     1     -23.523  -4.024  -7.897  1.00  0.00    -0.359 N 
HETATM    5  H   UNL     1     -24.236  -3.536  -7.370  1.00  0.00     0.162 HD
ENDROOT
BRANCH   4   6
HETATM    6  C   UNL     1     -22.427  -4.645  -7.168  1.00  0.00     0.148 C 
BRANCH   6   7
HETATM    7  C   UNL     1     -21.218  -3.720  -7.052  1.00  0.00     0.183 C 
BRANCH   7   8
HETATM    8  O   UNL     1     -20.338  -3.927  -8.158  1.00  0.00    -0.399 OA
HETATM    9  H   UNL     1     -20.622  -3.301  -8.846  1.00  0.00     0.209 HD
ENDBRANCH   7   8
ENDBRANCH   6   7
ENDBRANCH   4   6
TORSDOF 3
BEGIN_RES ARG D 557
REMARK  4 active torsions:
REMARK  status: ('A' for Active; 'I' for Inactive)
REMARK    1  A    between atoms: CA   and  CB  
REMARK    2  A    between atoms: CB   and  CG  
REMARK    3  A    between atoms: CG   and  CD  
REMARK    4  A    between atoms: CD   and  NE  
REMARK       I    between atoms: NE   and  CZ  
REMARK       I    between atoms: CZ   and  NH1 
REMARK       I    between atoms: CZ   and  NH2 
ROOT
ATOM      1  CA  ARG D 557     -26.217   2.705 -17.014  1.00 35.49     0.159 C 
ENDROOT
BRANCH   1   2
ATOM      2  CB  ARG D 557     -26.789   1.319 -17.183  1.00 35.49     0.034 C 
BRANCH   2   3
ATOM      3  CG  ARG D 557     -25.834   0.204 -17.171  1.00 35.49     0.027 C 
BRANCH   3   4
ATOM      4  CD  ARG D 557     -24.761   0.391 -16.167  1.00 35.49     0.116 C 
BRANCH   4   5
ATOM      5  NE  ARG D 557     -24.939  -0.459 -15.020  1.00 35.49    -0.212 N 
ATOM      6  CZ  ARG D 557     -24.139  -1.437 -14.657  1.00 35.49     0.666 C 
ATOM      7  NH1 ARG D 557     -23.058  -1.760 -15.342  1.00 35.49    -0.235 N 
ATOM      8  NH2 ARG D 557     -24.443  -2.090 -13.573  1.00 35.49    -0.235 N 
ATOM      9  HH  ARG D 557     -22.838  -1.342 -16.057  1.00 35.49     0.174 HD
ATOM     10  HH  ARG D 557     -22.573  -2.406 -15.056  1.00 35.49     0.174 HD
ATOM     11  HH  ARG D 557     -25.143  -1.855 -13.147  1.00 35.49     0.174 HD
ATOM     12  HH  ARG D 557     -23.949  -2.725 -13.306  1.00 35.49     0.174 HD
ATOM     13  HE  ARG D 557     -25.649  -0.368 -14.561  1.00 35.49     0.178 HD
ENDBRANCH   4   5
ENDBRANCH   3   4
ENDBRANCH   2   3
ENDBRANCH   1   2
END_RES ARG D 557
BEGIN_RES GLU D 570
REMARK  3 active torsions:
REMARK  status: ('A' for Active; 'I' for Inactive)
REMARK    5  A    between atoms: CA   and  CB  
REMARK    6  A    between atoms: CB   and  CG  
REMARK    7  A    between atoms: CG   and  CD  
ROOT
ATOM     14  CA  GLU D 570     -18.033  -6.348 -13.375  1.00 32.92     0.160 C 
ENDROOT
BRANCH  14  15
ATOM     15  CB  GLU D 570     -19.500  -6.345 -13.794  1.00 32.92     0.043 C 
BRANCH  15  16
ATOM     16  CG  GLU D 570     -20.438  -5.514 -12.996  1.00 32.92     0.100 C 
BRANCH  16  17
ATOM     17  CD  GLU D 570     -21.588  -4.974 -13.813  1.00 32.92     0.185 C 
ATOM     18  OE1 GLU D 570     -21.705  -5.328 -15.002  1.00 32.92    -0.647 OA
ATOM     19  OE2 GLU D 570     -22.372  -4.175 -13.263  1.00 32.92    -0.647 OA
ENDBRANCH  16  17
ENDBRANCH  15  16
ENDBRANCH  14  15
END_RES GLU D 570
ENDMDL
MODEL 9
REMARK VINA RESULT:      -4.0      3.667      4.919
REMARK  3 active torsions:
REMARK  status: ('A' for Active; 'I' for Inactive)
REMARK       I    between atoms: C_2  and  N_4 
REMARK    1  A    between atoms: N_4  and  C_5 
REMARK    2  A    between atoms: C_5  and  C_6 
REMARK    3  A    between atoms: C_6  and  O_7 
ROOT
HETATM    1  C   UNL     1     -29.935  -7.476 -17.937  1.00  0.00     0.117 C 
HETATM    2  C   UNL     1     -29.097  -6.595 -17.051  1.00  0.00     0.213 C 
HETATM    3  O   UNL     1     -29.581  -5.818 -16.239  1.00  0.00    -0.274 OA
HETATM    4  N   UNL     1     -27.744  -6.753 -17.246  1.00  0.00    -0.359 N 
HETATM    5  H   UNL     1     -27.407  -7.435 -17.912  1.00  0.00     0.162 HD
ENDROOT
BRANCH   4   6
HETATM    6  C   UNL     1     -26.769  -5.965 -16.507  1.00  0.00     0.148 C 
BRANCH   6   7
HETATM    7  C   UNL     1     -25.675  -6.835 -15.894  1.00  0.00     0.183 C 
BRANCH   7   8
HETATM    8  O   UNL     1     -24.402  -6.463 -16.424  1.00  0.00    -0.399 OA
HETATM    9  H   UNL     1     -23.741  -6.923 -15.878  1.00  0.00     0.209 HD
ENDBRANCH   7   8
ENDBRANCH   6   7
ENDBRANCH   4   6
TORSDOF 3
BEGIN_RES ARG D 557
REMARK  4 active torsions:
REMARK  status: ('A' for Active; 'I' for Inactive)
REMARK    1  A    between atoms: CA   and  CB  
REMARK    2  A    between atoms: CB   and  CG  
REMARK    3  A    between atoms: CG   and  CD  
REMARK    4  A    between atoms: CD   and  NE  
REMARK       I    between atoms: NE   and  CZ  
REMARK       I    between atoms: CZ   and  NH1 
REMARK       I    between atoms: CZ   and  NH2 
ROOT
ATOM      1  CA  ARG D 557     -26.217   2.705 -17.014  1.00 35.49     0.159 C 
ENDROOT
BRANCH   1   2
ATOM      2  CB  ARG D 557     -26.789   1.319 -17.183  1.00 35.49     0.034 C 
BRANCH   2   3
ATOM      3  CG  ARG D 557     -28.235   1.225 -17.417  1.00 35.49     0.027 C 
BRANCH   3   4
ATOM      4  CD  ARG D 557     -28.898   0.287 -16.483  1.00 35.49     0.116 C 
BRANCH   4   5
ATOM      5  NE  ARG D 557     -29.294  -0.935 -17.132  1.00 35.49    -0.212 N 
ATOM      6  CZ  ARG D 557     -28.674  -2.090 -17.037  1.00 35.49     0.666 C 
ATOM      7  NH1 ARG D 557     -27.576  -2.249 -16.322  1.00 35.49    -0.235 N 
ATOM      8  NH2 ARG D 557     -29.186  -3.101 -17.677  1.00 35.49    -0.235 N 
ATOM      9  HH  ARG D 557     -27.222  -1.599 -15.890  1.00 35.49     0.174 HD
ATOM     10  HH  ARG D 557     -27.216  -3.027 -16.295  1.00 35.49     0.174 HD
ATOM     11  HH  ARG D 557     -29.900  -2.970 -18.125  1.00 35.49     0.174 HD
ATOM     12  HH  ARG D 557     -28.817  -3.863 -17.637  1.00 35.49     0.174 HD
ATOM     13  HE  ARG D 557     -29.950  -0.907 -17.671  1.00 35.49     0.178 HD
ENDBRANCH   4   5
ENDBRANCH   3   4
ENDBRANCH   2   3
ENDBRANCH   1   2
END_RES ARG D 557
BEGIN_RES GLU D 570
REMARK  3 active torsions:
REMARK  status: ('A' for Active; 'I' for Inactive)
REMARK    5  A    between atoms: CA   and  CB  
REMARK    6  A    between atoms: CB   and  CG  
REMARK    7  A    between atoms: CG   and  CD  
ROOT
ATOM     14  CA  GLU D 570     -18.033  -6.348 -13.375  1.00 32.92     0.160 C 
ENDROOT
BRANCH  14  15
ATOM     15  CB  GLU D 570     -19.500  -6.345 -13.794  1.00 32.92     0.043 C 
BRANCH  15  16
ATOM     16  CG  GLU D 570     -19.811  -5.956 -15.194  1.00 32.92     0.100 C 
BRANCH  16  17
ATOM     17  CD  GLU D 570     -21.270  -5.621 -15.402  1.00 32.92     0.185 C 
ATOM     18  OE1 GLU D 570     -22.094  -5.933 -14.521  1.00 32.92    -0.647 OA
ATOM     19  OE2 GLU D 570     -21.594  -5.055 -16.465  1.00 32.92    -0.647 OA
ENDBRANCH  16  17
ENDBRANCH  15  16
ENDBRANCH  14  15
END_RES GLU D 570
ENDMDL
