MODEL 1
REMARK VINA RESULT:      -1.1      0.000      0.000
REMARK WARNING: 32 MAX_TORS EXCEEDED!!!
REMARK  66 active torsions:
REMARK  status: ('A' for Active; 'I' for Inactive)
REMARK    1  A    between atoms: C_2  and  C_3 
REMARK    2  A    between atoms: C_3  and  C_4 
REMARK    3  A    between atoms: C_4  and  C_5 
REMARK    4  A    between atoms: C_5  and  C_6 
REMARK    5  A    between atoms: C_6  and  C_7 
REMARK    6  A    between atoms: C_7  and  C_8 
REMARK    7  A    between atoms: C_8  and  C_9 
REMARK    8  A    between atoms: C_9  and  C_10 
REMARK    9  A    between atoms: C_10  and  C_11 
REMARK   10  A    between atoms: C_11  and  C_12 
REMARK   11  A    between atoms: C_12  and  C_13 
REMARK   12  A    between atoms: C_13  and  C_14 
REMARK       I    between atoms: C_14  and  N_16 
REMARK   13  A    between atoms: N_16  and  C_17 
REMARK   14  A    between atoms: C_17  and  C_18 
REMARK   15  A    between atoms: C_18  and  C_19 
REMARK   16  A    between atoms: C_19  and  N_20 
REMARK   17  A    between atoms: N_20  and  C_23 
REMARK   18  A    between atoms: C_23  and  C_24 
REMARK   19  A    between atoms: C_24  and  C_25 
REMARK   20  A    between atoms: C_24  and  O_83 
REMARK   21  A    between atoms: C_25  and  O_26 
REMARK   22  A    between atoms: O_26  and  P_27 
REMARK   23  A    between atoms: P_27  and  O_29 
REMARK   24  A    between atoms: P_27  and  O_56 
REMARK   25  A    between atoms: O_29  and  C_30 
REMARK   26  A    between atoms: C_30  and  C_31 
REMARK   27  A    between atoms: C_31  and  C_32 
REMARK   28  A    between atoms: C_31  and  O_55 
REMARK   29  A    between atoms: C_32  and  N_33 
REMARK   30  A    between atoms: N_33  and  C_36 
REMARK   31  A    between atoms: C_36  and  C_37 
REMARK   32  A    between atoms: C_37  and  C_38 
REMARK   33  A    between atoms: C_38  and  N_39 
REMARK       I    between atoms: N_39  and  C_40 
REMARK   34  A    between atoms: C_40  and  C_42 
REMARK   35  A    between atoms: C_42  and  C_43 
REMARK   36  A    between atoms: C_43  and  C_44 
REMARK   37  A    between atoms: C_44  and  C_45 
REMARK   38  A    between atoms: C_45  and  C_46 
REMARK   39  A    between atoms: C_46  and  C_47 
REMARK   40  A    between atoms: C_47  and  C_48 
REMARK   41  A    between atoms: C_48  and  C_49 
REMARK   42  A    between atoms: C_49  and  C_50 
REMARK   43  A    between atoms: C_50  and  C_51 
REMARK   44  A    between atoms: C_51  and  C_52 
REMARK   45  A    between atoms: C_52  and  C_53 
REMARK   46  A    between atoms: O_56  and  C_57 
REMARK   47  A    between atoms: C_57  and  C_58 
REMARK   48  A    between atoms: C_58  and  C_59 
REMARK   49  A    between atoms: C_58  and  O_82 
REMARK   50  A    between atoms: C_59  and  N_60 
REMARK   51  A    between atoms: N_60  and  C_63 
REMARK   52  A    between atoms: C_63  and  C_64 
REMARK   53  A    between atoms: C_64  and  C_65 
REMARK   54  A    between atoms: C_65  and  N_66 
REMARK       I    between atoms: N_66  and  C_67 
REMARK   55  A    between atoms: C_67  and  C_69 
REMARK   56  A    between atoms: C_69  and  C_70 
REMARK   57  A    between atoms: C_70  and  C_71 
REMARK   58  A    between atoms: C_71  and  C_72 
REMARK   59  A    between atoms: C_72  and  C_73 
REMARK   60  A    between atoms: C_73  and  C_74 
REMARK   61  A    between atoms: C_74  and  C_75 
REMARK   62  A    between atoms: C_75  and  C_76 
REMARK   63  A    between atoms: C_76  and  C_77 
REMARK   64  A    between atoms: C_77  and  C_78 
REMARK   65  A    between atoms: C_78  and  C_79 
REMARK   66  A    between atoms: C_79  and  C_80 
ROOT
HETATM    1 CL   UNL     2     -17.558  -3.684   5.410  1.00  0.00     0.000 Cl
ENDROOT
TORSDOF 66
BEGIN_RES ARG D 557
REMARK  4 active torsions:
REMARK  status: ('A' for Active; 'I' for Inactive)
REMARK    1  A    between atoms: CA   and  CB  
REMARK    2  A    between atoms: CB   and  CG  
REMARK    3  A    between atoms: CG   and  CD  
REMARK    4  A    between atoms: CD   and  NE  
REMARK       I    between atoms: NE   and  CZ  
REMARK       I    between atoms: CZ   and  NH1 
REMARK       I    between atoms: CZ   and  NH2 
ROOT
ATOM      1  CA  ARG D 557     -26.217   2.705 -17.014  1.00 35.49     0.159 C 
ENDROOT
BRANCH   1   2
ATOM      2  CB  ARG D 557     -26.789   1.319 -17.183  1.00 35.49     0.034 C 
BRANCH   2   3
ATOM      3  CG  ARG D 557     -25.835   0.203 -17.161  1.00 35.49     0.027 C 
BRANCH   3   4
ATOM      4  CD  ARG D 557     -24.746   0.412 -16.179  1.00 35.49     0.116 C 
BRANCH   4   5
ATOM      5  NE  ARG D 557     -24.891  -0.433 -15.022  1.00 35.49    -0.212 N 
ATOM      6  CZ  ARG D 557     -24.076  -1.404 -14.673  1.00 35.49     0.666 C 
ATOM      7  NH1 ARG D 557     -23.011  -1.725 -15.384  1.00 35.49    -0.235 N 
ATOM      8  NH2 ARG D 557     -24.350  -2.053 -13.579  1.00 35.49    -0.235 N 
ATOM      9  HH  ARG D 557     -22.810  -1.309 -16.106  1.00 35.49     0.174 HD
ATOM     10  HH  ARG D 557     -22.514  -2.366 -15.106  1.00 35.49     0.174 HD
ATOM     11  HH  ARG D 557     -25.041  -1.819 -13.137  1.00 35.49     0.174 HD
ATOM     12  HH  ARG D 557     -23.846  -2.683 -13.320  1.00 35.49     0.174 HD
ATOM     13  HE  ARG D 557     -25.590  -0.343 -14.547  1.00 35.49     0.178 HD
ENDBRANCH   4   5
ENDBRANCH   3   4
ENDBRANCH   2   3
ENDBRANCH   1   2
END_RES ARG D 557
BEGIN_RES GLU D 570
REMARK  3 active torsions:
REMARK  status: ('A' for Active; 'I' for Inactive)
REMARK    5  A    between atoms: CA   and  CB  
REMARK    6  A    between atoms: CB   and  CG  
REMARK    7  A    between atoms: CG   and  CD  
ROOT
ATOM     14  CA  GLU D 570     -18.033  -6.348 -13.375  1.00 32.92     0.160 C 
ENDROOT
BRANCH  14  15
ATOM     15  CB  GLU D 570     -19.500  -6.345 -13.794  1.00 32.92     0.043 C 
BRANCH  15  16
ATOM     16  CG  GLU D 570     -20.442  -5.533 -12.981  1.00 32.92     0.100 C 
BRANCH  16  17
ATOM     17  CD  GLU D 570     -21.739  -5.241 -13.700  1.00 32.92     0.185 C 
ATOM     18  OE1 GLU D 570     -22.303  -4.146 -13.509  1.00 32.92    -0.647 OA
ATOM     19  OE2 GLU D 570     -22.205  -6.123 -14.448  1.00 32.92    -0.647 OA
ENDBRANCH  16  17
ENDBRANCH  15  16
ENDBRANCH  14  15
END_RES GLU D 570
ENDMDL
MODEL 2
REMARK VINA RESULT:      -1.0      5.523      5.602
REMARK WARNING: 32 MAX_TORS EXCEEDED!!!
REMARK  66 active torsions:
REMARK  status: ('A' for Active; 'I' for Inactive)
REMARK    1  A    between atoms: C_2  and  C_3 
REMARK    2  A    between atoms: C_3  and  C_4 
REMARK    3  A    between atoms: C_4  and  C_5 
REMARK    4  A    between atoms: C_5  and  C_6 
REMARK    5  A    between atoms: C_6  and  C_7 
REMARK    6  A    between atoms: C_7  and  C_8 
REMARK    7  A    between atoms: C_8  and  C_9 
REMARK    8  A    between atoms: C_9  and  C_10 
REMARK    9  A    between atoms: C_10  and  C_11 
REMARK   10  A    between atoms: C_11  and  C_12 
REMARK   11  A    between atoms: C_12  and  C_13 
REMARK   12  A    between atoms: C_13  and  C_14 
REMARK       I    between atoms: C_14  and  N_16 
REMARK   13  A    between atoms: N_16  and  C_17 
REMARK   14  A    between atoms: C_17  and  C_18 
REMARK   15  A    between atoms: C_18  and  C_19 
REMARK   16  A    between atoms: C_19  and  N_20 
REMARK   17  A    between atoms: N_20  and  C_23 
REMARK   18  A    between atoms: C_23  and  C_24 
REMARK   19  A    between atoms: C_24  and  C_25 
REMARK   20  A    between atoms: C_24  and  O_83 
REMARK   21  A    between atoms: C_25  and  O_26 
REMARK   22  A    between atoms: O_26  and  P_27 
REMARK   23  A    between atoms: P_27  and  O_29 
REMARK   24  A    between atoms: P_27  and  O_56 
REMARK   25  A    between atoms: O_29  and  C_30 
REMARK   26  A    between atoms: C_30  and  C_31 
REMARK   27  A    between atoms: C_31  and  C_32 
REMARK   28  A    between atoms: C_31  and  O_55 
REMARK   29  A    between atoms: C_32  and  N_33 
REMARK   30  A    between atoms: N_33  and  C_36 
REMARK   31  A    between atoms: C_36  and  C_37 
REMARK   32  A    between atoms: C_37  and  C_38 
REMARK   33  A    between atoms: C_38  and  N_39 
REMARK       I    between atoms: N_39  and  C_40 
REMARK   34  A    between atoms: C_40  and  C_42 
REMARK   35  A    between atoms: C_42  and  C_43 
REMARK   36  A    between atoms: C_43  and  C_44 
REMARK   37  A    between atoms: C_44  and  C_45 
REMARK   38  A    between atoms: C_45  and  C_46 
REMARK   39  A    between atoms: C_46  and  C_47 
REMARK   40  A    between atoms: C_47  and  C_48 
REMARK   41  A    between atoms: C_48  and  C_49 
REMARK   42  A    between atoms: C_49  and  C_50 
REMARK   43  A    between atoms: C_50  and  C_51 
REMARK   44  A    between atoms: C_51  and  C_52 
REMARK   45  A    between atoms: C_52  and  C_53 
REMARK   46  A    between atoms: O_56  and  C_57 
REMARK   47  A    between atoms: C_57  and  C_58 
REMARK   48  A    between atoms: C_58  and  C_59 
REMARK   49  A    between atoms: C_58  and  O_82 
REMARK   50  A    between atoms: C_59  and  N_60 
REMARK   51  A    between atoms: N_60  and  C_63 
REMARK   52  A    between atoms: C_63  and  C_64 
REMARK   53  A    between atoms: C_64  and  C_65 
REMARK   54  A    between atoms: C_65  and  N_66 
REMARK       I    between atoms: N_66  and  C_67 
REMARK   55  A    between atoms: C_67  and  C_69 
REMARK   56  A    between atoms: C_69  and  C_70 
REMARK   57  A    between atoms: C_70  and  C_71 
REMARK   58  A    between atoms: C_71  and  C_72 
REMARK   59  A    between atoms: C_72  and  C_73 
REMARK   60  A    between atoms: C_73  and  C_74 
REMARK   61  A    between atoms: C_74  and  C_75 
REMARK   62  A    between atoms: C_75  and  C_76 
REMARK   63  A    between atoms: C_76  and  C_77 
REMARK   64  A    between atoms: C_77  and  C_78 
REMARK   65  A    between atoms: C_78  and  C_79 
REMARK   66  A    between atoms: C_79  and  C_80 
ROOT
HETATM    1 CL   UNL     2     -34.379  -5.943  -1.485  1.00  0.00     0.000 Cl
ENDROOT
TORSDOF 66
BEGIN_RES ARG D 557
REMARK  4 active torsions:
REMARK  status: ('A' for Active; 'I' for Inactive)
REMARK    1  A    between atoms: CA   and  CB  
REMARK    2  A    between atoms: CB   and  CG  
REMARK    3  A    between atoms: CG   and  CD  
REMARK    4  A    between atoms: CD   and  NE  
REMARK       I    between atoms: NE   and  CZ  
REMARK       I    between atoms: CZ   and  NH1 
REMARK       I    between atoms: CZ   and  NH2 
ROOT
ATOM      1  CA  ARG D 557     -26.217   2.705 -17.014  1.00 35.49     0.159 C 
ENDROOT
BRANCH   1   2
ATOM      2  CB  ARG D 557     -26.789   1.319 -17.183  1.00 35.49     0.034 C 
BRANCH   2   3
ATOM      3  CG  ARG D 557     -25.836   0.203 -17.155  1.00 35.49     0.027 C 
BRANCH   3   4
ATOM      4  CD  ARG D 557     -24.752   0.411 -16.168  1.00 35.49     0.116 C 
BRANCH   4   5
ATOM      5  NE  ARG D 557     -24.898  -0.439 -15.016  1.00 35.49    -0.212 N 
ATOM      6  CZ  ARG D 557     -24.082  -1.409 -14.669  1.00 35.49     0.666 C 
ATOM      7  NH1 ARG D 557     -23.013  -1.725 -15.377  1.00 35.49    -0.235 N 
ATOM      8  NH2 ARG D 557     -24.358  -2.064 -13.579  1.00 35.49    -0.235 N 
ATOM      9  HH  ARG D 557     -22.812  -1.306 -16.097  1.00 35.49     0.174 HD
ATOM     10  HH  ARG D 557     -22.517  -2.366 -15.101  1.00 35.49     0.174 HD
ATOM     11  HH  ARG D 557     -25.050  -1.834 -13.138  1.00 35.49     0.174 HD
ATOM     12  HH  ARG D 557     -23.853  -2.695 -13.321  1.00 35.49     0.174 HD
ATOM     13  HE  ARG D 557     -25.599  -0.353 -14.542  1.00 35.49     0.178 HD
ENDBRANCH   4   5
ENDBRANCH   3   4
ENDBRANCH   2   3
ENDBRANCH   1   2
END_RES ARG D 557
BEGIN_RES GLU D 570
REMARK  3 active torsions:
REMARK  status: ('A' for Active; 'I' for Inactive)
REMARK    5  A    between atoms: CA   and  CB  
REMARK    6  A    between atoms: CB   and  CG  
REMARK    7  A    between atoms: CG   and  CD  
ROOT
ATOM     14  CA  GLU D 570     -18.033  -6.348 -13.375  1.00 32.92     0.160 C 
ENDROOT
BRANCH  14  15
ATOM     15  CB  GLU D 570     -19.500  -6.345 -13.794  1.00 32.92     0.043 C 
BRANCH  15  16
ATOM     16  CG  GLU D 570     -20.443  -5.534 -12.981  1.00 32.92     0.100 C 
BRANCH  16  17
ATOM     17  CD  GLU D 570     -21.745  -5.254 -13.693  1.00 32.92     0.185 C 
ATOM     18  OE1 GLU D 570     -22.230  -6.130 -14.434  1.00 32.92    -0.647 OA
ATOM     19  OE2 GLU D 570     -22.277  -4.139 -13.522  1.00 32.92    -0.647 OA
ENDBRANCH  16  17
ENDBRANCH  15  16
ENDBRANCH  14  15
END_RES GLU D 570
ENDMDL
MODEL 3
REMARK VINA RESULT:      -1.0      2.705      2.705
REMARK WARNING: 32 MAX_TORS EXCEEDED!!!
REMARK  66 active torsions:
REMARK  status: ('A' for Active; 'I' for Inactive)
REMARK    1  A    between atoms: C_2  and  C_3 
REMARK    2  A    between atoms: C_3  and  C_4 
REMARK    3  A    between atoms: C_4  and  C_5 
REMARK    4  A    between atoms: C_5  and  C_6 
REMARK    5  A    between atoms: C_6  and  C_7 
REMARK    6  A    between atoms: C_7  and  C_8 
REMARK    7  A    between atoms: C_8  and  C_9 
REMARK    8  A    between atoms: C_9  and  C_10 
REMARK    9  A    between atoms: C_10  and  C_11 
REMARK   10  A    between atoms: C_11  and  C_12 
REMARK   11  A    between atoms: C_12  and  C_13 
REMARK   12  A    between atoms: C_13  and  C_14 
REMARK       I    between atoms: C_14  and  N_16 
REMARK   13  A    between atoms: N_16  and  C_17 
REMARK   14  A    between atoms: C_17  and  C_18 
REMARK   15  A    between atoms: C_18  and  C_19 
REMARK   16  A    between atoms: C_19  and  N_20 
REMARK   17  A    between atoms: N_20  and  C_23 
REMARK   18  A    between atoms: C_23  and  C_24 
REMARK   19  A    between atoms: C_24  and  C_25 
REMARK   20  A    between atoms: C_24  and  O_83 
REMARK   21  A    between atoms: C_25  and  O_26 
REMARK   22  A    between atoms: O_26  and  P_27 
REMARK   23  A    between atoms: P_27  and  O_29 
REMARK   24  A    between atoms: P_27  and  O_56 
REMARK   25  A    between atoms: O_29  and  C_30 
REMARK   26  A    between atoms: C_30  and  C_31 
REMARK   27  A    between atoms: C_31  and  C_32 
REMARK   28  A    between atoms: C_31  and  O_55 
REMARK   29  A    between atoms: C_32  and  N_33 
REMARK   30  A    between atoms: N_33  and  C_36 
REMARK   31  A    between atoms: C_36  and  C_37 
REMARK   32  A    between atoms: C_37  and  C_38 
REMARK   33  A    between atoms: C_38  and  N_39 
REMARK       I    between atoms: N_39  and  C_40 
REMARK   34  A    between atoms: C_40  and  C_42 
REMARK   35  A    between atoms: C_42  and  C_43 
REMARK   36  A    between atoms: C_43  and  C_44 
REMARK   37  A    between atoms: C_44  and  C_45 
REMARK   38  A    between atoms: C_45  and  C_46 
REMARK   39  A    between atoms: C_46  and  C_47 
REMARK   40  A    between atoms: C_47  and  C_48 
REMARK   41  A    between atoms: C_48  and  C_49 
REMARK   42  A    between atoms: C_49  and  C_50 
REMARK   43  A    between atoms: C_50  and  C_51 
REMARK   44  A    between atoms: C_51  and  C_52 
REMARK   45  A    between atoms: C_52  and  C_53 
REMARK   46  A    between atoms: O_56  and  C_57 
REMARK   47  A    between atoms: C_57  and  C_58 
REMARK   48  A    between atoms: C_58  and  C_59 
REMARK   49  A    between atoms: C_58  and  O_82 
REMARK   50  A    between atoms: C_59  and  N_60 
REMARK   51  A    between atoms: N_60  and  C_63 
REMARK   52  A    between atoms: C_63  and  C_64 
REMARK   53  A    between atoms: C_64  and  C_65 
REMARK   54  A    between atoms: C_65  and  N_66 
REMARK       I    between atoms: N_66  and  C_67 
REMARK   55  A    between atoms: C_67  and  C_69 
REMARK   56  A    between atoms: C_69  and  C_70 
REMARK   57  A    between atoms: C_70  and  C_71 
REMARK   58  A    between atoms: C_71  and  C_72 
REMARK   59  A    between atoms: C_72  and  C_73 
REMARK   60  A    between atoms: C_73  and  C_74 
REMARK   61  A    between atoms: C_74  and  C_75 
REMARK   62  A    between atoms: C_75  and  C_76 
REMARK   63  A    between atoms: C_76  and  C_77 
REMARK   64  A    between atoms: C_77  and  C_78 
REMARK   65  A    between atoms: C_78  and  C_79 
REMARK   66  A    between atoms: C_79  and  C_80 
ROOT
HETATM    1 CL   UNL     2     -22.270  -6.222  -1.791  1.00  0.00     0.000 Cl
ENDROOT
TORSDOF 66
BEGIN_RES ARG D 557
REMARK  4 active torsions:
REMARK  status: ('A' for Active; 'I' for Inactive)
REMARK    1  A    between atoms: CA   and  CB  
REMARK    2  A    between atoms: CB   and  CG  
REMARK    3  A    between atoms: CG   and  CD  
REMARK    4  A    between atoms: CD   and  NE  
REMARK       I    between atoms: NE   and  CZ  
REMARK       I    between atoms: CZ   and  NH1 
REMARK       I    between atoms: CZ   and  NH2 
ROOT
ATOM      1  CA  ARG D 557     -26.217   2.705 -17.014  1.00 35.49     0.159 C 
ENDROOT
BRANCH   1   2
ATOM      2  CB  ARG D 557     -26.789   1.319 -17.183  1.00 35.49     0.034 C 
BRANCH   2   3
ATOM      3  CG  ARG D 557     -25.835   0.203 -17.159  1.00 35.49     0.027 C 
BRANCH   3   4
ATOM      4  CD  ARG D 557     -24.750   0.410 -16.173  1.00 35.49     0.116 C 
BRANCH   4   5
ATOM      5  NE  ARG D 557     -24.895  -0.438 -15.020  1.00 35.49    -0.212 N 
ATOM      6  CZ  ARG D 557     -24.078  -1.407 -14.671  1.00 35.49     0.666 C 
ATOM      7  NH1 ARG D 557     -23.008  -1.721 -15.378  1.00 35.49    -0.235 N 
ATOM      8  NH2 ARG D 557     -24.354  -2.061 -13.580  1.00 35.49    -0.235 N 
ATOM      9  HH  ARG D 557     -22.806  -1.303 -16.098  1.00 35.49     0.174 HD
ATOM     10  HH  ARG D 557     -22.510  -2.361 -15.100  1.00 35.49     0.174 HD
ATOM     11  HH  ARG D 557     -25.047  -1.831 -13.140  1.00 35.49     0.174 HD
ATOM     12  HH  ARG D 557     -23.848  -2.690 -13.321  1.00 35.49     0.174 HD
ATOM     13  HE  ARG D 557     -25.597  -0.353 -14.547  1.00 35.49     0.178 HD
ENDBRANCH   4   5
ENDBRANCH   3   4
ENDBRANCH   2   3
ENDBRANCH   1   2
END_RES ARG D 557
BEGIN_RES GLU D 570
REMARK  3 active torsions:
REMARK  status: ('A' for Active; 'I' for Inactive)
REMARK    5  A    between atoms: CA   and  CB  
REMARK    6  A    between atoms: CB   and  CG  
REMARK    7  A    between atoms: CG   and  CD  
ROOT
ATOM     14  CA  GLU D 570     -18.033  -6.348 -13.375  1.00 32.92     0.160 C 
ENDROOT
BRANCH  14  15
ATOM     15  CB  GLU D 570     -19.500  -6.345 -13.794  1.00 32.92     0.043 C 
BRANCH  15  16
ATOM     16  CG  GLU D 570     -20.442  -5.533 -12.981  1.00 32.92     0.100 C 
BRANCH  16  17
ATOM     17  CD  GLU D 570     -21.743  -5.248 -13.696  1.00 32.92     0.185 C 
ATOM     18  OE1 GLU D 570     -22.296  -4.145 -13.529  1.00 32.92    -0.647 OA
ATOM     19  OE2 GLU D 570     -22.221  -6.145 -14.418  1.00 32.92    -0.647 OA
ENDBRANCH  16  17
ENDBRANCH  15  16
ENDBRANCH  14  15
END_RES GLU D 570
ENDMDL
MODEL 4
REMARK VINA RESULT:      -1.0      7.418      7.418
REMARK WARNING: 32 MAX_TORS EXCEEDED!!!
REMARK  66 active torsions:
REMARK  status: ('A' for Active; 'I' for Inactive)
REMARK    1  A    between atoms: C_2  and  C_3 
REMARK    2  A    between atoms: C_3  and  C_4 
REMARK    3  A    between atoms: C_4  and  C_5 
REMARK    4  A    between atoms: C_5  and  C_6 
REMARK    5  A    between atoms: C_6  and  C_7 
REMARK    6  A    between atoms: C_7  and  C_8 
REMARK    7  A    between atoms: C_8  and  C_9 
REMARK    8  A    between atoms: C_9  and  C_10 
REMARK    9  A    between atoms: C_10  and  C_11 
REMARK   10  A    between atoms: C_11  and  C_12 
REMARK   11  A    between atoms: C_12  and  C_13 
REMARK   12  A    between atoms: C_13  and  C_14 
REMARK       I    between atoms: C_14  and  N_16 
REMARK   13  A    between atoms: N_16  and  C_17 
REMARK   14  A    between atoms: C_17  and  C_18 
REMARK   15  A    between atoms: C_18  and  C_19 
REMARK   16  A    between atoms: C_19  and  N_20 
REMARK   17  A    between atoms: N_20  and  C_23 
REMARK   18  A    between atoms: C_23  and  C_24 
REMARK   19  A    between atoms: C_24  and  C_25 
REMARK   20  A    between atoms: C_24  and  O_83 
REMARK   21  A    between atoms: C_25  and  O_26 
REMARK   22  A    between atoms: O_26  and  P_27 
REMARK   23  A    between atoms: P_27  and  O_29 
REMARK   24  A    between atoms: P_27  and  O_56 
REMARK   25  A    between atoms: O_29  and  C_30 
REMARK   26  A    between atoms: C_30  and  C_31 
REMARK   27  A    between atoms: C_31  and  C_32 
REMARK   28  A    between atoms: C_31  and  O_55 
REMARK   29  A    between atoms: C_32  and  N_33 
REMARK   30  A    between atoms: N_33  and  C_36 
REMARK   31  A    between atoms: C_36  and  C_37 
REMARK   32  A    between atoms: C_37  and  C_38 
REMARK   33  A    between atoms: C_38  and  N_39 
REMARK       I    between atoms: N_39  and  C_40 
REMARK   34  A    between atoms: C_40  and  C_42 
REMARK   35  A    between atoms: C_42  and  C_43 
REMARK   36  A    between atoms: C_43  and  C_44 
REMARK   37  A    between atoms: C_44  and  C_45 
REMARK   38  A    between atoms: C_45  and  C_46 
REMARK   39  A    between atoms: C_46  and  C_47 
REMARK   40  A    between atoms: C_47  and  C_48 
REMARK   41  A    between atoms: C_48  and  C_49 
REMARK   42  A    between atoms: C_49  and  C_50 
REMARK   43  A    between atoms: C_50  and  C_51 
REMARK   44  A    between atoms: C_51  and  C_52 
REMARK   45  A    between atoms: C_52  and  C_53 
REMARK   46  A    between atoms: O_56  and  C_57 
REMARK   47  A    between atoms: C_57  and  C_58 
REMARK   48  A    between atoms: C_58  and  C_59 
REMARK   49  A    between atoms: C_58  and  O_82 
REMARK   50  A    between atoms: C_59  and  N_60 
REMARK   51  A    between atoms: N_60  and  C_63 
REMARK   52  A    between atoms: C_63  and  C_64 
REMARK   53  A    between atoms: C_64  and  C_65 
REMARK   54  A    between atoms: C_65  and  N_66 
REMARK       I    between atoms: N_66  and  C_67 
REMARK   55  A    between atoms: C_67  and  C_69 
REMARK   56  A    between atoms: C_69  and  C_70 
REMARK   57  A    between atoms: C_70  and  C_71 
REMARK   58  A    between atoms: C_71  and  C_72 
REMARK   59  A    between atoms: C_72  and  C_73 
REMARK   60  A    between atoms: C_73  and  C_74 
REMARK   61  A    between atoms: C_74  and  C_75 
REMARK   62  A    between atoms: C_75  and  C_76 
REMARK   63  A    between atoms: C_76  and  C_77 
REMARK   64  A    between atoms: C_77  and  C_78 
REMARK   65  A    between atoms: C_78  and  C_79 
REMARK   66  A    between atoms: C_79  and  C_80 
ROOT
HETATM    1 CL   UNL     2     -29.867   7.444 -12.753  1.00  0.00     0.000 Cl
ENDROOT
TORSDOF 66
BEGIN_RES ARG D 557
REMARK  4 active torsions:
REMARK  status: ('A' for Active; 'I' for Inactive)
REMARK    1  A    between atoms: CA   and  CB  
REMARK    2  A    between atoms: CB   and  CG  
REMARK    3  A    between atoms: CG   and  CD  
REMARK    4  A    between atoms: CD   and  NE  
REMARK       I    between atoms: NE   and  CZ  
REMARK       I    between atoms: CZ   and  NH1 
REMARK       I    between atoms: CZ   and  NH2 
ROOT
ATOM      1  CA  ARG D 557     -26.217   2.705 -17.014  1.00 35.49     0.159 C 
ENDROOT
BRANCH   1   2
ATOM      2  CB  ARG D 557     -26.789   1.319 -17.183  1.00 35.49     0.034 C 
BRANCH   2   3
ATOM      3  CG  ARG D 557     -25.833   0.205 -17.177  1.00 35.49     0.027 C 
BRANCH   3   4
ATOM      4  CD  ARG D 557     -24.745   0.400 -16.192  1.00 35.49     0.116 C 
BRANCH   4   5
ATOM      5  NE  ARG D 557     -24.905  -0.440 -15.034  1.00 35.49    -0.212 N 
ATOM      6  CZ  ARG D 557     -24.095  -1.409 -14.670  1.00 35.49     0.666 C 
ATOM      7  NH1 ARG D 557     -23.019  -1.732 -15.363  1.00 35.49    -0.235 N 
ATOM      8  NH2 ARG D 557     -24.384  -2.054 -13.577  1.00 35.49    -0.235 N 
ATOM      9  HH  ARG D 557     -22.809  -1.319 -16.084  1.00 35.49     0.174 HD
ATOM     10  HH  ARG D 557     -22.526  -2.371 -15.076  1.00 35.49     0.174 HD
ATOM     11  HH  ARG D 557     -25.081  -1.819 -13.146  1.00 35.49     0.174 HD
ATOM     12  HH  ARG D 557     -23.883  -2.683 -13.308  1.00 35.49     0.174 HD
ATOM     13  HE  ARG D 557     -25.612  -0.349 -14.569  1.00 35.49     0.178 HD
ENDBRANCH   4   5
ENDBRANCH   3   4
ENDBRANCH   2   3
ENDBRANCH   1   2
END_RES ARG D 557
BEGIN_RES GLU D 570
REMARK  3 active torsions:
REMARK  status: ('A' for Active; 'I' for Inactive)
REMARK    5  A    between atoms: CA   and  CB  
REMARK    6  A    between atoms: CB   and  CG  
REMARK    7  A    between atoms: CG   and  CD  
ROOT
ATOM     14  CA  GLU D 570     -18.033  -6.348 -13.375  1.00 32.92     0.160 C 
ENDROOT
BRANCH  14  15
ATOM     15  CB  GLU D 570     -19.500  -6.345 -13.794  1.00 32.92     0.043 C 
BRANCH  15  16
ATOM     16  CG  GLU D 570     -20.443  -5.536 -12.979  1.00 32.92     0.100 C 
BRANCH  16  17
ATOM     17  CD  GLU D 570     -21.729  -5.220 -13.707  1.00 32.92     0.185 C 
ATOM     18  OE1 GLU D 570     -22.325  -4.157 -13.449  1.00 32.92    -0.647 OA
ATOM     19  OE2 GLU D 570     -22.155  -6.054 -14.530  1.00 32.92    -0.647 OA
ENDBRANCH  16  17
ENDBRANCH  15  16
ENDBRANCH  14  15
END_RES GLU D 570
ENDMDL
MODEL 5
REMARK VINA RESULT:      -0.9      6.488      6.488
REMARK WARNING: 32 MAX_TORS EXCEEDED!!!
REMARK  66 active torsions:
REMARK  status: ('A' for Active; 'I' for Inactive)
REMARK    1  A    between atoms: C_2  and  C_3 
REMARK    2  A    between atoms: C_3  and  C_4 
REMARK    3  A    between atoms: C_4  and  C_5 
REMARK    4  A    between atoms: C_5  and  C_6 
REMARK    5  A    between atoms: C_6  and  C_7 
REMARK    6  A    between atoms: C_7  and  C_8 
REMARK    7  A    between atoms: C_8  and  C_9 
REMARK    8  A    between atoms: C_9  and  C_10 
REMARK    9  A    between atoms: C_10  and  C_11 
REMARK   10  A    between atoms: C_11  and  C_12 
REMARK   11  A    between atoms: C_12  and  C_13 
REMARK   12  A    between atoms: C_13  and  C_14 
REMARK       I    between atoms: C_14  and  N_16 
REMARK   13  A    between atoms: N_16  and  C_17 
REMARK   14  A    between atoms: C_17  and  C_18 
REMARK   15  A    between atoms: C_18  and  C_19 
REMARK   16  A    between atoms: C_19  and  N_20 
REMARK   17  A    between atoms: N_20  and  C_23 
REMARK   18  A    between atoms: C_23  and  C_24 
REMARK   19  A    between atoms: C_24  and  C_25 
REMARK   20  A    between atoms: C_24  and  O_83 
REMARK   21  A    between atoms: C_25  and  O_26 
REMARK   22  A    between atoms: O_26  and  P_27 
REMARK   23  A    between atoms: P_27  and  O_29 
REMARK   24  A    between atoms: P_27  and  O_56 
REMARK   25  A    between atoms: O_29  and  C_30 
REMARK   26  A    between atoms: C_30  and  C_31 
REMARK   27  A    between atoms: C_31  and  C_32 
REMARK   28  A    between atoms: C_31  and  O_55 
REMARK   29  A    between atoms: C_32  and  N_33 
REMARK   30  A    between atoms: N_33  and  C_36 
REMARK   31  A    between atoms: C_36  and  C_37 
REMARK   32  A    between atoms: C_37  and  C_38 
REMARK   33  A    between atoms: C_38  and  N_39 
REMARK       I    between atoms: N_39  and  C_40 
REMARK   34  A    between atoms: C_40  and  C_42 
REMARK   35  A    between atoms: C_42  and  C_43 
REMARK   36  A    between atoms: C_43  and  C_44 
REMARK   37  A    between atoms: C_44  and  C_45 
REMARK   38  A    between atoms: C_45  and  C_46 
REMARK   39  A    between atoms: C_46  and  C_47 
REMARK   40  A    between atoms: C_47  and  C_48 
REMARK   41  A    between atoms: C_48  and  C_49 
REMARK   42  A    between atoms: C_49  and  C_50 
REMARK   43  A    between atoms: C_50  and  C_51 
REMARK   44  A    between atoms: C_51  and  C_52 
REMARK   45  A    between atoms: C_52  and  C_53 
REMARK   46  A    between atoms: O_56  and  C_57 
REMARK   47  A    between atoms: C_57  and  C_58 
REMARK   48  A    between atoms: C_58  and  C_59 
REMARK   49  A    between atoms: C_58  and  O_82 
REMARK   50  A    between atoms: C_59  and  N_60 
REMARK   51  A    between atoms: N_60  and  C_63 
REMARK   52  A    between atoms: C_63  and  C_64 
REMARK   53  A    between atoms: C_64  and  C_65 
REMARK   54  A    between atoms: C_65  and  N_66 
REMARK       I    between atoms: N_66  and  C_67 
REMARK   55  A    between atoms: C_67  and  C_69 
REMARK   56  A    between atoms: C_69  and  C_70 
REMARK   57  A    between atoms: C_70  and  C_71 
REMARK   58  A    between atoms: C_71  and  C_72 
REMARK   59  A    between atoms: C_72  and  C_73 
REMARK   60  A    between atoms: C_73  and  C_74 
REMARK   61  A    between atoms: C_74  and  C_75 
REMARK   62  A    between atoms: C_75  and  C_76 
REMARK   63  A    between atoms: C_76  and  C_77 
REMARK   64  A    between atoms: C_77  and  C_78 
REMARK   65  A    between atoms: C_78  and  C_79 
REMARK   66  A    between atoms: C_79  and  C_80 
ROOT
HETATM    1 CL   UNL     2     -11.829   5.541 -13.167  1.00  0.00     0.000 Cl
ENDROOT
TORSDOF 66
BEGIN_RES ARG D 557
REMARK  4 active torsions:
REMARK  status: ('A' for Active; 'I' for Inactive)
REMARK    1  A    between atoms: CA   and  CB  
REMARK    2  A    between atoms: CB   and  CG  
REMARK    3  A    between atoms: CG   and  CD  
REMARK    4  A    between atoms: CD   and  NE  
REMARK       I    between atoms: NE   and  CZ  
REMARK       I    between atoms: CZ   and  NH1 
REMARK       I    between atoms: CZ   and  NH2 
ROOT
ATOM      1  CA  ARG D 557     -26.217   2.705 -17.014  1.00 35.49     0.159 C 
ENDROOT
BRANCH   1   2
ATOM      2  CB  ARG D 557     -26.789   1.319 -17.183  1.00 35.49     0.034 C 
BRANCH   2   3
ATOM      3  CG  ARG D 557     -25.836   0.203 -17.155  1.00 35.49     0.027 C 
BRANCH   3   4
ATOM      4  CD  ARG D 557     -24.755   0.409 -16.164  1.00 35.49     0.116 C 
BRANCH   4   5
ATOM      5  NE  ARG D 557     -24.905  -0.442 -15.013  1.00 35.49    -0.212 N 
ATOM      6  CZ  ARG D 557     -24.094  -1.417 -14.668  1.00 35.49     0.666 C 
ATOM      7  NH1 ARG D 557     -23.027  -1.737 -15.377  1.00 35.49    -0.235 N 
ATOM      8  NH2 ARG D 557     -24.373  -2.072 -13.579  1.00 35.49    -0.235 N 
ATOM      9  HH  ARG D 557     -22.823  -1.318 -16.096  1.00 35.49     0.174 HD
ATOM     10  HH  ARG D 557     -22.534  -2.381 -15.101  1.00 35.49     0.174 HD
ATOM     11  HH  ARG D 557     -25.065  -1.839 -13.137  1.00 35.49     0.174 HD
ATOM     12  HH  ARG D 557     -23.871  -2.706 -13.322  1.00 35.49     0.174 HD
ATOM     13  HE  ARG D 557     -25.606  -0.353 -14.539  1.00 35.49     0.178 HD
ENDBRANCH   4   5
ENDBRANCH   3   4
ENDBRANCH   2   3
ENDBRANCH   1   2
END_RES ARG D 557
BEGIN_RES GLU D 570
REMARK  3 active torsions:
REMARK  status: ('A' for Active; 'I' for Inactive)
REMARK    5  A    between atoms: CA   and  CB  
REMARK    6  A    between atoms: CB   and  CG  
REMARK    7  A    between atoms: CG   and  CD  
ROOT
ATOM     14  CA  GLU D 570     -18.033  -6.348 -13.375  1.00 32.92     0.160 C 
ENDROOT
BRANCH  14  15
ATOM     15  CB  GLU D 570     -19.500  -6.345 -13.794  1.00 32.92     0.043 C 
BRANCH  15  16
ATOM     16  CG  GLU D 570     -20.442  -5.533 -12.981  1.00 32.92     0.100 C 
BRANCH  16  17
ATOM     17  CD  GLU D 570     -21.728  -5.219 -13.709  1.00 32.92     0.185 C 
ATOM     18  OE1 GLU D 570     -22.318  -4.149 -13.462  1.00 32.92    -0.647 OA
ATOM     19  OE2 GLU D 570     -22.159  -6.058 -14.524  1.00 32.92    -0.647 OA
ENDBRANCH  16  17
ENDBRANCH  15  16
ENDBRANCH  14  15
END_RES GLU D 570
ENDMDL
MODEL 6
REMARK VINA RESULT:      -0.8      4.688      4.779
REMARK WARNING: 32 MAX_TORS EXCEEDED!!!
REMARK  66 active torsions:
REMARK  status: ('A' for Active; 'I' for Inactive)
REMARK    1  A    between atoms: C_2  and  C_3 
REMARK    2  A    between atoms: C_3  and  C_4 
REMARK    3  A    between atoms: C_4  and  C_5 
REMARK    4  A    between atoms: C_5  and  C_6 
REMARK    5  A    between atoms: C_6  and  C_7 
REMARK    6  A    between atoms: C_7  and  C_8 
REMARK    7  A    between atoms: C_8  and  C_9 
REMARK    8  A    between atoms: C_9  and  C_10 
REMARK    9  A    between atoms: C_10  and  C_11 
REMARK   10  A    between atoms: C_11  and  C_12 
REMARK   11  A    between atoms: C_12  and  C_13 
REMARK   12  A    between atoms: C_13  and  C_14 
REMARK       I    between atoms: C_14  and  N_16 
REMARK   13  A    between atoms: N_16  and  C_17 
REMARK   14  A    between atoms: C_17  and  C_18 
REMARK   15  A    between atoms: C_18  and  C_19 
REMARK   16  A    between atoms: C_19  and  N_20 
REMARK   17  A    between atoms: N_20  and  C_23 
REMARK   18  A    between atoms: C_23  and  C_24 
REMARK   19  A    between atoms: C_24  and  C_25 
REMARK   20  A    between atoms: C_24  and  O_83 
REMARK   21  A    between atoms: C_25  and  O_26 
REMARK   22  A    between atoms: O_26  and  P_27 
REMARK   23  A    between atoms: P_27  and  O_29 
REMARK   24  A    between atoms: P_27  and  O_56 
REMARK   25  A    between atoms: O_29  and  C_30 
REMARK   26  A    between atoms: C_30  and  C_31 
REMARK   27  A    between atoms: C_31  and  C_32 
REMARK   28  A    between atoms: C_31  and  O_55 
REMARK   29  A    between atoms: C_32  and  N_33 
REMARK   30  A    between atoms: N_33  and  C_36 
REMARK   31  A    between atoms: C_36  and  C_37 
REMARK   32  A    between atoms: C_37  and  C_38 
REMARK   33  A    between atoms: C_38  and  N_39 
REMARK       I    between atoms: N_39  and  C_40 
REMARK   34  A    between atoms: C_40  and  C_42 
REMARK   35  A    between atoms: C_42  and  C_43 
REMARK   36  A    between atoms: C_43  and  C_44 
REMARK   37  A    between atoms: C_44  and  C_45 
REMARK   38  A    between atoms: C_45  and  C_46 
REMARK   39  A    between atoms: C_46  and  C_47 
REMARK   40  A    between atoms: C_47  and  C_48 
REMARK   41  A    between atoms: C_48  and  C_49 
REMARK   42  A    between atoms: C_49  and  C_50 
REMARK   43  A    between atoms: C_50  and  C_51 
REMARK   44  A    between atoms: C_51  and  C_52 
REMARK   45  A    between atoms: C_52  and  C_53 
REMARK   46  A    between atoms: O_56  and  C_57 
REMARK   47  A    between atoms: C_57  and  C_58 
REMARK   48  A    between atoms: C_58  and  C_59 
REMARK   49  A    between atoms: C_58  and  O_82 
REMARK   50  A    between atoms: C_59  and  N_60 
REMARK   51  A    between atoms: N_60  and  C_63 
REMARK   52  A    between atoms: C_63  and  C_64 
REMARK   53  A    between atoms: C_64  and  C_65 
REMARK   54  A    between atoms: C_65  and  N_66 
REMARK       I    between atoms: N_66  and  C_67 
REMARK   55  A    between atoms: C_67  and  C_69 
REMARK   56  A    between atoms: C_69  and  C_70 
REMARK   57  A    between atoms: C_70  and  C_71 
REMARK   58  A    between atoms: C_71  and  C_72 
REMARK   59  A    between atoms: C_72  and  C_73 
REMARK   60  A    between atoms: C_73  and  C_74 
REMARK   61  A    between atoms: C_74  and  C_75 
REMARK   62  A    between atoms: C_75  and  C_76 
REMARK   63  A    between atoms: C_76  and  C_77 
REMARK   64  A    between atoms: C_77  and  C_78 
REMARK   65  A    between atoms: C_78  and  C_79 
REMARK   66  A    between atoms: C_79  and  C_80 
ROOT
HETATM    1 CL   UNL     2     -29.193   6.530   4.001  1.00  0.00     0.000 Cl
ENDROOT
TORSDOF 66
BEGIN_RES ARG D 557
REMARK  4 active torsions:
REMARK  status: ('A' for Active; 'I' for Inactive)
REMARK    1  A    between atoms: CA   and  CB  
REMARK    2  A    between atoms: CB   and  CG  
REMARK    3  A    between atoms: CG   and  CD  
REMARK    4  A    between atoms: CD   and  NE  
REMARK       I    between atoms: NE   and  CZ  
REMARK       I    between atoms: CZ   and  NH1 
REMARK       I    between atoms: CZ   and  NH2 
ROOT
ATOM      1  CA  ARG D 557     -26.217   2.705 -17.014  1.00 35.49     0.159 C 
ENDROOT
BRANCH   1   2
ATOM      2  CB  ARG D 557     -26.789   1.319 -17.183  1.00 35.49     0.034 C 
BRANCH   2   3
ATOM      3  CG  ARG D 557     -25.835   0.204 -17.162  1.00 35.49     0.027 C 
BRANCH   3   4
ATOM      4  CD  ARG D 557     -24.761   0.398 -16.162  1.00 35.49     0.116 C 
BRANCH   4   5
ATOM      5  NE  ARG D 557     -24.927  -0.454 -15.015  1.00 35.49    -0.212 N 
ATOM      6  CZ  ARG D 557     -24.119  -1.427 -14.657  1.00 35.49     0.666 C 
ATOM      7  NH1 ARG D 557     -23.040  -1.743 -15.348  1.00 35.49    -0.235 N 
ATOM      8  NH2 ARG D 557     -24.414  -2.085 -13.573  1.00 35.49    -0.235 N 
ATOM      9  HH  ARG D 557     -22.825  -1.322 -16.063  1.00 35.49     0.174 HD
ATOM     10  HH  ARG D 557     -22.549  -2.385 -15.065  1.00 35.49     0.174 HD
ATOM     11  HH  ARG D 557     -25.114  -1.854 -13.143  1.00 35.49     0.174 HD
ATOM     12  HH  ARG D 557     -23.915  -2.717 -13.309  1.00 35.49     0.174 HD
ATOM     13  HE  ARG D 557     -25.636  -0.368 -14.553  1.00 35.49     0.178 HD
ENDBRANCH   4   5
ENDBRANCH   3   4
ENDBRANCH   2   3
ENDBRANCH   1   2
END_RES ARG D 557
BEGIN_RES GLU D 570
REMARK  3 active torsions:
REMARK  status: ('A' for Active; 'I' for Inactive)
REMARK    5  A    between atoms: CA   and  CB  
REMARK    6  A    between atoms: CB   and  CG  
REMARK    7  A    between atoms: CG   and  CD  
ROOT
ATOM     14  CA  GLU D 570     -18.033  -6.348 -13.375  1.00 32.92     0.160 C 
ENDROOT
BRANCH  14  15
ATOM     15  CB  GLU D 570     -19.500  -6.345 -13.794  1.00 32.92     0.043 C 
BRANCH  15  16
ATOM     16  CG  GLU D 570     -20.439  -5.517 -12.994  1.00 32.92     0.100 C 
BRANCH  16  17
ATOM     17  CD  GLU D 570     -21.729  -5.220 -13.721  1.00 32.92     0.185 C 
ATOM     18  OE1 GLU D 570     -22.159  -6.043 -14.552  1.00 32.92    -0.647 OA
ATOM     19  OE2 GLU D 570     -22.308  -4.144 -13.470  1.00 32.92    -0.647 OA
ENDBRANCH  16  17
ENDBRANCH  15  16
ENDBRANCH  14  15
END_RES GLU D 570
ENDMDL
MODEL 7
REMARK VINA RESULT:      -0.7      3.068      3.207
REMARK WARNING: 32 MAX_TORS EXCEEDED!!!
REMARK  66 active torsions:
REMARK  status: ('A' for Active; 'I' for Inactive)
REMARK    1  A    between atoms: C_2  and  C_3 
REMARK    2  A    between atoms: C_3  and  C_4 
REMARK    3  A    between atoms: C_4  and  C_5 
REMARK    4  A    between atoms: C_5  and  C_6 
REMARK    5  A    between atoms: C_6  and  C_7 
REMARK    6  A    between atoms: C_7  and  C_8 
REMARK    7  A    between atoms: C_8  and  C_9 
REMARK    8  A    between atoms: C_9  and  C_10 
REMARK    9  A    between atoms: C_10  and  C_11 
REMARK   10  A    between atoms: C_11  and  C_12 
REMARK   11  A    between atoms: C_12  and  C_13 
REMARK   12  A    between atoms: C_13  and  C_14 
REMARK       I    between atoms: C_14  and  N_16 
REMARK   13  A    between atoms: N_16  and  C_17 
REMARK   14  A    between atoms: C_17  and  C_18 
REMARK   15  A    between atoms: C_18  and  C_19 
REMARK   16  A    between atoms: C_19  and  N_20 
REMARK   17  A    between atoms: N_20  and  C_23 
REMARK   18  A    between atoms: C_23  and  C_24 
REMARK   19  A    between atoms: C_24  and  C_25 
REMARK   20  A    between atoms: C_24  and  O_83 
REMARK   21  A    between atoms: C_25  and  O_26 
REMARK   22  A    between atoms: O_26  and  P_27 
REMARK   23  A    between atoms: P_27  and  O_29 
REMARK   24  A    between atoms: P_27  and  O_56 
REMARK   25  A    between atoms: O_29  and  C_30 
REMARK   26  A    between atoms: C_30  and  C_31 
REMARK   27  A    between atoms: C_31  and  C_32 
REMARK   28  A    between atoms: C_31  and  O_55 
REMARK   29  A    between atoms: C_32  and  N_33 
REMARK   30  A    between atoms: N_33  and  C_36 
REMARK   31  A    between atoms: C_36  and  C_37 
REMARK   32  A    between atoms: C_37  and  C_38 
REMARK   33  A    between atoms: C_38  and  N_39 
REMARK       I    between atoms: N_39  and  C_40 
REMARK   34  A    between atoms: C_40  and  C_42 
REMARK   35  A    between atoms: C_42  and  C_43 
REMARK   36  A    between atoms: C_43  and  C_44 
REMARK   37  A    between atoms: C_44  and  C_45 
REMARK   38  A    between atoms: C_45  and  C_46 
REMARK   39  A    between atoms: C_46  and  C_47 
REMARK   40  A    between atoms: C_47  and  C_48 
REMARK   41  A    between atoms: C_48  and  C_49 
REMARK   42  A    between atoms: C_49  and  C_50 
REMARK   43  A    between atoms: C_50  and  C_51 
REMARK   44  A    between atoms: C_51  and  C_52 
REMARK   45  A    between atoms: C_52  and  C_53 
REMARK   46  A    between atoms: O_56  and  C_57 
REMARK   47  A    between atoms: C_57  and  C_58 
REMARK   48  A    between atoms: C_58  and  C_59 
REMARK   49  A    between atoms: C_58  and  O_82 
REMARK   50  A    between atoms: C_59  and  N_60 
REMARK   51  A    between atoms: N_60  and  C_63 
REMARK   52  A    between atoms: C_63  and  C_64 
REMARK   53  A    between atoms: C_64  and  C_65 
REMARK   54  A    between atoms: C_65  and  N_66 
REMARK       I    between atoms: N_66  and  C_67 
REMARK   55  A    between atoms: C_67  and  C_69 
REMARK   56  A    between atoms: C_69  and  C_70 
REMARK   57  A    between atoms: C_70  and  C_71 
REMARK   58  A    between atoms: C_71  and  C_72 
REMARK   59  A    between atoms: C_72  and  C_73 
REMARK   60  A    between atoms: C_73  and  C_74 
REMARK   61  A    between atoms: C_74  and  C_75 
REMARK   62  A    between atoms: C_75  and  C_76 
REMARK   63  A    between atoms: C_76  and  C_77 
REMARK   64  A    between atoms: C_77  and  C_78 
REMARK   65  A    between atoms: C_78  and  C_79 
REMARK   66  A    between atoms: C_79  and  C_80 
ROOT
HETATM    1 CL   UNL     2     -15.930  -9.428  -2.830  1.00  0.00     0.000 Cl
ENDROOT
TORSDOF 66
BEGIN_RES ARG D 557
REMARK  4 active torsions:
REMARK  status: ('A' for Active; 'I' for Inactive)
REMARK    1  A    between atoms: CA   and  CB  
REMARK    2  A    between atoms: CB   and  CG  
REMARK    3  A    between atoms: CG   and  CD  
REMARK    4  A    between atoms: CD   and  NE  
REMARK       I    between atoms: NE   and  CZ  
REMARK       I    between atoms: CZ   and  NH1 
REMARK       I    between atoms: CZ   and  NH2 
ROOT
ATOM      1  CA  ARG D 557     -26.217   2.705 -17.014  1.00 35.49     0.159 C 
ENDROOT
BRANCH   1   2
ATOM      2  CB  ARG D 557     -26.789   1.319 -17.183  1.00 35.49     0.034 C 
BRANCH   2   3
ATOM      3  CG  ARG D 557     -25.836   0.203 -17.155  1.00 35.49     0.027 C 
BRANCH   3   4
ATOM      4  CD  ARG D 557     -24.752   0.411 -16.168  1.00 35.49     0.116 C 
BRANCH   4   5
ATOM      5  NE  ARG D 557     -24.898  -0.437 -15.015  1.00 35.49    -0.212 N 
ATOM      6  CZ  ARG D 557     -24.082  -1.408 -14.667  1.00 35.49     0.666 C 
ATOM      7  NH1 ARG D 557     -23.014  -1.724 -15.375  1.00 35.49    -0.235 N 
ATOM      8  NH2 ARG D 557     -24.358  -2.062 -13.576  1.00 35.49    -0.235 N 
ATOM      9  HH  ARG D 557     -22.812  -1.305 -16.095  1.00 35.49     0.174 HD
ATOM     10  HH  ARG D 557     -22.517  -2.365 -15.098  1.00 35.49     0.174 HD
ATOM     11  HH  ARG D 557     -25.050  -1.831 -13.135  1.00 35.49     0.174 HD
ATOM     12  HH  ARG D 557     -23.853  -2.692 -13.318  1.00 35.49     0.174 HD
ATOM     13  HE  ARG D 557     -25.599  -0.351 -14.541  1.00 35.49     0.178 HD
ENDBRANCH   4   5
ENDBRANCH   3   4
ENDBRANCH   2   3
ENDBRANCH   1   2
END_RES ARG D 557
BEGIN_RES GLU D 570
REMARK  3 active torsions:
REMARK  status: ('A' for Active; 'I' for Inactive)
REMARK    5  A    between atoms: CA   and  CB  
REMARK    6  A    between atoms: CB   and  CG  
REMARK    7  A    between atoms: CG   and  CD  
ROOT
ATOM     14  CA  GLU D 570     -18.033  -6.348 -13.375  1.00 32.92     0.160 C 
ENDROOT
BRANCH  14  15
ATOM     15  CB  GLU D 570     -19.500  -6.345 -13.794  1.00 32.92     0.043 C 
BRANCH  15  16
ATOM     16  CG  GLU D 570     -20.440  -5.522 -12.990  1.00 32.92     0.100 C 
BRANCH  16  17
ATOM     17  CD  GLU D 570     -21.744  -5.250 -13.703  1.00 32.92     0.185 C 
ATOM     18  OE1 GLU D 570     -22.201  -6.112 -14.478  1.00 32.92    -0.647 OA
ATOM     19  OE2 GLU D 570     -22.305  -4.156 -13.498  1.00 32.92    -0.647 OA
ENDBRANCH  16  17
ENDBRANCH  15  16
ENDBRANCH  14  15
END_RES GLU D 570
ENDMDL
MODEL 8
REMARK VINA RESULT:      -0.7      8.826      8.826
REMARK WARNING: 32 MAX_TORS EXCEEDED!!!
REMARK  66 active torsions:
REMARK  status: ('A' for Active; 'I' for Inactive)
REMARK    1  A    between atoms: C_2  and  C_3 
REMARK    2  A    between atoms: C_3  and  C_4 
REMARK    3  A    between atoms: C_4  and  C_5 
REMARK    4  A    between atoms: C_5  and  C_6 
REMARK    5  A    between atoms: C_6  and  C_7 
REMARK    6  A    between atoms: C_7  and  C_8 
REMARK    7  A    between atoms: C_8  and  C_9 
REMARK    8  A    between atoms: C_9  and  C_10 
REMARK    9  A    between atoms: C_10  and  C_11 
REMARK   10  A    between atoms: C_11  and  C_12 
REMARK   11  A    between atoms: C_12  and  C_13 
REMARK   12  A    between atoms: C_13  and  C_14 
REMARK       I    between atoms: C_14  and  N_16 
REMARK   13  A    between atoms: N_16  and  C_17 
REMARK   14  A    between atoms: C_17  and  C_18 
REMARK   15  A    between atoms: C_18  and  C_19 
REMARK   16  A    between atoms: C_19  and  N_20 
REMARK   17  A    between atoms: N_20  and  C_23 
REMARK   18  A    between atoms: C_23  and  C_24 
REMARK   19  A    between atoms: C_24  and  C_25 
REMARK   20  A    between atoms: C_24  and  O_83 
REMARK   21  A    between atoms: C_25  and  O_26 
REMARK   22  A    between atoms: O_26  and  P_27 
REMARK   23  A    between atoms: P_27  and  O_29 
REMARK   24  A    between atoms: P_27  and  O_56 
REMARK   25  A    between atoms: O_29  and  C_30 
REMARK   26  A    between atoms: C_30  and  C_31 
REMARK   27  A    between atoms: C_31  and  C_32 
REMARK   28  A    between atoms: C_31  and  O_55 
REMARK   29  A    between atoms: C_32  and  N_33 
REMARK   30  A    between atoms: N_33  and  C_36 
REMARK   31  A    between atoms: C_36  and  C_37 
REMARK   32  A    between atoms: C_37  and  C_38 
REMARK   33  A    between atoms: C_38  and  N_39 
REMARK       I    between atoms: N_39  and  C_40 
REMARK   34  A    between atoms: C_40  and  C_42 
REMARK   35  A    between atoms: C_42  and  C_43 
REMARK   36  A    between atoms: C_43  and  C_44 
REMARK   37  A    between atoms: C_44  and  C_45 
REMARK   38  A    between atoms: C_45  and  C_46 
REMARK   39  A    between atoms: C_46  and  C_47 
REMARK   40  A    between atoms: C_47  and  C_48 
REMARK   41  A    between atoms: C_48  and  C_49 
REMARK   42  A    between atoms: C_49  and  C_50 
REMARK   43  A    between atoms: C_50  and  C_51 
REMARK   44  A    between atoms: C_51  and  C_52 
REMARK   45  A    between atoms: C_52  and  C_53 
REMARK   46  A    between atoms: O_56  and  C_57 
REMARK   47  A    between atoms: C_57  and  C_58 
REMARK   48  A    between atoms: C_58  and  C_59 
REMARK   49  A    between atoms: C_58  and  O_82 
REMARK   50  A    between atoms: C_59  and  N_60 
REMARK   51  A    between atoms: N_60  and  C_63 
REMARK   52  A    between atoms: C_63  and  C_64 
REMARK   53  A    between atoms: C_64  and  C_65 
REMARK   54  A    between atoms: C_65  and  N_66 
REMARK       I    between atoms: N_66  and  C_67 
REMARK   55  A    between atoms: C_67  and  C_69 
REMARK   56  A    between atoms: C_69  and  C_70 
REMARK   57  A    between atoms: C_70  and  C_71 
REMARK   58  A    between atoms: C_71  and  C_72 
REMARK   59  A    between atoms: C_72  and  C_73 
REMARK   60  A    between atoms: C_73  and  C_74 
REMARK   61  A    between atoms: C_74  and  C_75 
REMARK   62  A    between atoms: C_75  and  C_76 
REMARK   63  A    between atoms: C_76  and  C_77 
REMARK   64  A    between atoms: C_77  and  C_78 
REMARK   65  A    between atoms: C_78  and  C_79 
REMARK   66  A    between atoms: C_79  and  C_80 
ROOT
HETATM    1 CL   UNL     2      -9.142   6.417 -20.743  1.00  0.00     0.000 Cl
ENDROOT
TORSDOF 66
BEGIN_RES ARG D 557
REMARK  4 active torsions:
REMARK  status: ('A' for Active; 'I' for Inactive)
REMARK    1  A    between atoms: CA   and  CB  
REMARK    2  A    between atoms: CB   and  CG  
REMARK    3  A    between atoms: CG   and  CD  
REMARK    4  A    between atoms: CD   and  NE  
REMARK       I    between atoms: NE   and  CZ  
REMARK       I    between atoms: CZ   and  NH1 
REMARK       I    between atoms: CZ   and  NH2 
ROOT
ATOM      1  CA  ARG D 557     -26.217   2.705 -17.014  1.00 35.49     0.159 C 
ENDROOT
BRANCH   1   2
ATOM      2  CB  ARG D 557     -26.789   1.319 -17.183  1.00 35.49     0.034 C 
BRANCH   2   3
ATOM      3  CG  ARG D 557     -25.835   0.203 -17.160  1.00 35.49     0.027 C 
BRANCH   3   4
ATOM      4  CD  ARG D 557     -24.747   0.411 -16.177  1.00 35.49     0.116 C 
BRANCH   4   5
ATOM      5  NE  ARG D 557     -24.893  -0.432 -15.020  1.00 35.49    -0.212 N 
ATOM      6  CZ  ARG D 557     -24.082  -1.405 -14.671  1.00 35.49     0.666 C 
ATOM      7  NH1 ARG D 557     -23.017  -1.729 -15.381  1.00 35.49    -0.235 N 
ATOM      8  NH2 ARG D 557     -24.357  -2.053 -13.576  1.00 35.49    -0.235 N 
ATOM      9  HH  ARG D 557     -22.815  -1.314 -16.103  1.00 35.49     0.174 HD
ATOM     10  HH  ARG D 557     -22.522  -2.371 -15.103  1.00 35.49     0.174 HD
ATOM     11  HH  ARG D 557     -25.047  -1.817 -13.134  1.00 35.49     0.174 HD
ATOM     12  HH  ARG D 557     -23.854  -2.684 -13.317  1.00 35.49     0.174 HD
ATOM     13  HE  ARG D 557     -25.593  -0.340 -14.545  1.00 35.49     0.178 HD
ENDBRANCH   4   5
ENDBRANCH   3   4
ENDBRANCH   2   3
ENDBRANCH   1   2
END_RES ARG D 557
BEGIN_RES GLU D 570
REMARK  3 active torsions:
REMARK  status: ('A' for Active; 'I' for Inactive)
REMARK    5  A    between atoms: CA   and  CB  
REMARK    6  A    between atoms: CB   and  CG  
REMARK    7  A    between atoms: CG   and  CD  
ROOT
ATOM     14  CA  GLU D 570     -18.033  -6.348 -13.375  1.00 32.92     0.160 C 
ENDROOT
BRANCH  14  15
ATOM     15  CB  GLU D 570     -19.500  -6.345 -13.794  1.00 32.92     0.043 C 
BRANCH  15  16
ATOM     16  CG  GLU D 570     -20.445  -5.544 -12.973  1.00 32.92     0.100 C 
BRANCH  16  17
ATOM     17  CD  GLU D 570     -21.742  -5.247 -13.689  1.00 32.92     0.185 C 
ATOM     18  OE1 GLU D 570     -22.272  -4.129 -13.542  1.00 32.92    -0.647 OA
ATOM     19  OE2 GLU D 570     -22.241  -6.147 -14.392  1.00 32.92    -0.647 OA
ENDBRANCH  16  17
ENDBRANCH  15  16
ENDBRANCH  14  15
END_RES GLU D 570
ENDMDL
MODEL 9
REMARK VINA RESULT:      -0.6      3.500      3.640
REMARK WARNING: 32 MAX_TORS EXCEEDED!!!
REMARK  66 active torsions:
REMARK  status: ('A' for Active; 'I' for Inactive)
REMARK    1  A    between atoms: C_2  and  C_3 
REMARK    2  A    between atoms: C_3  and  C_4 
REMARK    3  A    between atoms: C_4  and  C_5 
REMARK    4  A    between atoms: C_5  and  C_6 
REMARK    5  A    between atoms: C_6  and  C_7 
REMARK    6  A    between atoms: C_7  and  C_8 
REMARK    7  A    between atoms: C_8  and  C_9 
REMARK    8  A    between atoms: C_9  and  C_10 
REMARK    9  A    between atoms: C_10  and  C_11 
REMARK   10  A    between atoms: C_11  and  C_12 
REMARK   11  A    between atoms: C_12  and  C_13 
REMARK   12  A    between atoms: C_13  and  C_14 
REMARK       I    between atoms: C_14  and  N_16 
REMARK   13  A    between atoms: N_16  and  C_17 
REMARK   14  A    between atoms: C_17  and  C_18 
REMARK   15  A    between atoms: C_18  and  C_19 
REMARK   16  A    between atoms: C_19  and  N_20 
REMARK   17  A    between atoms: N_20  and  C_23 
REMARK   18  A    between atoms: C_23  and  C_24 
REMARK   19  A    between atoms: C_24  and  C_25 
REMARK   20  A    between atoms: C_24  and  O_83 
REMARK   21  A    between atoms: C_25  and  O_26 
REMARK   22  A    between atoms: O_26  and  P_27 
REMARK   23  A    between atoms: P_27  and  O_29 
REMARK   24  A    between atoms: P_27  and  O_56 
REMARK   25  A    between atoms: O_29  and  C_30 
REMARK   26  A    between atoms: C_30  and  C_31 
REMARK   27  A    between atoms: C_31  and  C_32 
REMARK   28  A    between atoms: C_31  and  O_55 
REMARK   29  A    between atoms: C_32  and  N_33 
REMARK   30  A    between atoms: N_33  and  C_36 
REMARK   31  A    between atoms: C_36  and  C_37 
REMARK   32  A    between atoms: C_37  and  C_38 
REMARK   33  A    between atoms: C_38  and  N_39 
REMARK       I    between atoms: N_39  and  C_40 
REMARK   34  A    between atoms: C_40  and  C_42 
REMARK   35  A    between atoms: C_42  and  C_43 
REMARK   36  A    between atoms: C_43  and  C_44 
REMARK   37  A    between atoms: C_44  and  C_45 
REMARK   38  A    between atoms: C_45  and  C_46 
REMARK   39  A    between atoms: C_46  and  C_47 
REMARK   40  A    between atoms: C_47  and  C_48 
REMARK   41  A    between atoms: C_48  and  C_49 
REMARK   42  A    between atoms: C_49  and  C_50 
REMARK   43  A    between atoms: C_50  and  C_51 
REMARK   44  A    between atoms: C_51  and  C_52 
REMARK   45  A    between atoms: C_52  and  C_53 
REMARK   46  A    between atoms: O_56  and  C_57 
REMARK   47  A    between atoms: C_57  and  C_58 
REMARK   48  A    between atoms: C_58  and  C_59 
REMARK   49  A    between atoms: C_58  and  O_82 
REMARK   50  A    between atoms: C_59  and  N_60 
REMARK   51  A    between atoms: N_60  and  C_63 
REMARK   52  A    between atoms: C_63  and  C_64 
REMARK   53  A    between atoms: C_64  and  C_65 
REMARK   54  A    between atoms: C_65  and  N_66 
REMARK       I    between atoms: N_66  and  C_67 
REMARK   55  A    between atoms: C_67  and  C_69 
REMARK   56  A    between atoms: C_69  and  C_70 
REMARK   57  A    between atoms: C_70  and  C_71 
REMARK   58  A    between atoms: C_71  and  C_72 
REMARK   59  A    between atoms: C_72  and  C_73 
REMARK   60  A    between atoms: C_73  and  C_74 
REMARK   61  A    between atoms: C_74  and  C_75 
REMARK   62  A    between atoms: C_75  and  C_76 
REMARK   63  A    between atoms: C_76  and  C_77 
REMARK   64  A    between atoms: C_77  and  C_78 
REMARK   65  A    between atoms: C_78  and  C_79 
REMARK   66  A    between atoms: C_79  and  C_80 
ROOT
HETATM    1 CL   UNL     2     -24.097 -10.854  -0.067  1.00  0.00     0.000 Cl
ENDROOT
TORSDOF 66
BEGIN_RES ARG D 557
REMARK  4 active torsions:
REMARK  status: ('A' for Active; 'I' for Inactive)
REMARK    1  A    between atoms: CA   and  CB  
REMARK    2  A    between atoms: CB   and  CG  
REMARK    3  A    between atoms: CG   and  CD  
REMARK    4  A    between atoms: CD   and  NE  
REMARK       I    between atoms: NE   and  CZ  
REMARK       I    between atoms: CZ   and  NH1 
REMARK       I    between atoms: CZ   and  NH2 
ROOT
ATOM      1  CA  ARG D 557     -26.217   2.705 -17.014  1.00 35.49     0.159 C 
ENDROOT
BRANCH   1   2
ATOM      2  CB  ARG D 557     -26.789   1.319 -17.183  1.00 35.49     0.034 C 
BRANCH   2   3
ATOM      3  CG  ARG D 557     -25.862   0.195 -17.002  1.00 35.49     0.027 C 
BRANCH   3   4
ATOM      4  CD  ARG D 557     -26.260  -0.690 -15.883  1.00 35.49     0.116 C 
BRANCH   4   5
ATOM      5  NE  ARG D 557     -25.189  -0.890 -14.943  1.00 35.49    -0.212 N 
ATOM      6  CZ  ARG D 557     -24.881  -2.027 -14.360  1.00 35.49     0.666 C 
ATOM      7  NH1 ARG D 557     -25.559  -3.140 -14.574  1.00 35.49    -0.235 N 
ATOM      8  NH2 ARG D 557     -23.863  -2.030 -13.550  1.00 35.49    -0.235 N 
ATOM      9  HH  ARG D 557     -26.231  -3.161 -15.105  1.00 35.49     0.174 HD
ATOM     10  HH  ARG D 557     -25.311  -3.852 -14.168  1.00 35.49     0.174 HD
ATOM     11  HH  ARG D 557     -23.440  -1.299 -13.436  1.00 35.49     0.174 HD
ATOM     12  HH  ARG D 557     -23.632  -2.746 -13.158  1.00 35.49     0.174 HD
ATOM     13  HE  ARG D 557     -24.745  -0.210 -14.692  1.00 35.49     0.178 HD
ENDBRANCH   4   5
ENDBRANCH   3   4
ENDBRANCH   2   3
ENDBRANCH   1   2
END_RES ARG D 557
BEGIN_RES GLU D 570
REMARK  3 active torsions:
REMARK  status: ('A' for Active; 'I' for Inactive)
REMARK    5  A    between atoms: CA   and  CB  
REMARK    6  A    between atoms: CB   and  CG  
REMARK    7  A    between atoms: CG   and  CD  
ROOT
ATOM     14  CA  GLU D 570     -18.033  -6.348 -13.375  1.00 32.92     0.160 C 
ENDROOT
BRANCH  14  15
ATOM     15  CB  GLU D 570     -19.500  -6.345 -13.794  1.00 32.92     0.043 C 
BRANCH  15  16
ATOM     16  CG  GLU D 570     -20.448  -5.558 -12.963  1.00 32.92     0.100 C 
BRANCH  16  17
ATOM     17  CD  GLU D 570     -21.676  -5.119 -13.726  1.00 32.92     0.185 C 
ATOM     18  OE1 GLU D 570     -21.617  -5.029 -14.967  1.00 32.92    -0.647 OA
ATOM     19  OE2 GLU D 570     -22.703  -4.847 -13.073  1.00 32.92    -0.647 OA
ENDBRANCH  16  17
ENDBRANCH  15  16
ENDBRANCH  14  15
END_RES GLU D 570
ENDMDL
