MODEL 1
REMARK VINA RESULT:      -5.7      0.000      0.000
REMARK  7 active torsions:
REMARK  status: ('A' for Active; 'I' for Inactive)
REMARK    1  A    between atoms: C_1  and  C_2 
REMARK    2  A    between atoms: C_1  and  C_7 
REMARK    3  A    between atoms: C_2  and  C_3 
REMARK    4  A    between atoms: C_3  and  C_4 
REMARK    5  A    between atoms: C_4  and  O_6 
REMARK    6  A    between atoms: C_7  and  C_8 
REMARK    7  A    between atoms: C_8  and  O_10 
ROOT
HETATM    1  C   UNL     1     -21.946  -3.761 -10.422  1.00  0.00     0.011 C 
ENDROOT
BRANCH   1   2
HETATM    2  C   UNL     1     -21.830  -2.958 -11.720  1.00  0.00     0.011 C 
BRANCH   2   3
HETATM    3  C   UNL     1     -22.383  -3.703 -12.931  1.00  0.00     0.110 C 
BRANCH   3   4
HETATM    4  C   UNL     1     -23.290  -2.816 -13.741  1.00  0.00     0.139 C 
HETATM    5  O   UNL     1     -23.123  -2.582 -14.928  1.00  0.00    -0.650 OA
BRANCH   4   6
HETATM    6  O   UNL     1     -24.301  -2.278 -13.026  1.00  0.00    -0.776 OA
HETATM    7  H   UNL     1     -25.173  -2.342 -13.458  1.00  0.00     0.167 HD
ENDBRANCH   4   6
ENDBRANCH   3   4
ENDBRANCH   2   3
ENDBRANCH   1   2
BRANCH   1   8
HETATM    8  C   UNL     1     -23.242  -4.568 -10.326  1.00  0.00     0.110 C 
BRANCH   8   9
HETATM    9  C   UNL     1     -24.372  -3.764  -9.730  1.00  0.00     0.139 C 
HETATM   10  O   UNL     1     -25.261  -3.218 -10.362  1.00  0.00    -0.650 OA
BRANCH   9  11
HETATM   11  O   UNL     1     -24.313  -3.727  -8.378  1.00  0.00    -0.776 OA
HETATM   12  H   UNL     1     -24.453  -2.838  -7.999  1.00  0.00     0.167 HD
ENDBRANCH   9  11
ENDBRANCH   8   9
ENDBRANCH   1   8
TORSDOF 7
BEGIN_RES ARG D 557
REMARK  4 active torsions:
REMARK  status: ('A' for Active; 'I' for Inactive)
REMARK    1  A    between atoms: CA   and  CB  
REMARK    2  A    between atoms: CB   and  CG  
REMARK    3  A    between atoms: CG   and  CD  
REMARK    4  A    between atoms: CD   and  NE  
REMARK       I    between atoms: NE   and  CZ  
REMARK       I    between atoms: CZ   and  NH1 
REMARK       I    between atoms: CZ   and  NH2 
ROOT
ATOM      1  CA  ARG D 557     -26.217   2.705 -17.014  1.00 35.49     0.159 C 
ENDROOT
BRANCH   1   2
ATOM      2  CB  ARG D 557     -26.789   1.319 -17.183  1.00 35.49     0.034 C 
BRANCH   2   3
ATOM      3  CG  ARG D 557     -28.229   1.165 -16.945  1.00 35.49     0.027 C 
BRANCH   3   4
ATOM      4  CD  ARG D 557     -28.609  -0.239 -16.668  1.00 35.49     0.116 C 
BRANCH   4   5
ATOM      5  NE  ARG D 557     -27.574  -0.952 -15.965  1.00 35.49    -0.212 N 
ATOM      6  CZ  ARG D 557     -27.349  -2.244 -16.035  1.00 35.49     0.666 C 
ATOM      7  NH1 ARG D 557     -28.085  -3.054 -16.773  1.00 35.49    -0.235 N 
ATOM      8  NH2 ARG D 557     -26.352  -2.718 -15.345  1.00 35.49    -0.235 N 
ATOM      9  HH  ARG D 557     -28.745  -2.764 -17.237  1.00 35.49     0.174 HD
ATOM     10  HH  ARG D 557     -27.889  -3.888 -16.782  1.00 35.49     0.174 HD
ATOM     11  HH  ARG D 557     -25.889  -2.171 -14.883  1.00 35.49     0.174 HD
ATOM     12  HH  ARG D 557     -26.173  -3.546 -15.368  1.00 35.49     0.174 HD
ATOM     13  HE  ARG D 557     -27.098  -0.519 -15.410  1.00 35.49     0.178 HD
ENDBRANCH   4   5
ENDBRANCH   3   4
ENDBRANCH   2   3
ENDBRANCH   1   2
END_RES ARG D 557
BEGIN_RES GLU D 570
REMARK  3 active torsions:
REMARK  status: ('A' for Active; 'I' for Inactive)
REMARK    5  A    between atoms: CA   and  CB  
REMARK    6  A    between atoms: CB   and  CG  
REMARK    7  A    between atoms: CG   and  CD  
ROOT
ATOM     14  CA  GLU D 570     -18.033  -6.348 -13.375  1.00 32.92     0.160 C 
ENDROOT
BRANCH  14  15
ATOM     15  CB  GLU D 570     -19.500  -6.345 -13.794  1.00 32.92     0.043 C 
BRANCH  15  16
ATOM     16  CG  GLU D 570     -19.797  -6.217 -15.244  1.00 32.92     0.100 C 
BRANCH  16  17
ATOM     17  CD  GLU D 570     -21.258  -5.950 -15.525  1.00 32.92     0.185 C 
ATOM     18  OE1 GLU D 570     -22.122  -6.613 -14.919  1.00 32.92    -0.647 OA
ATOM     19  OE2 GLU D 570     -21.541  -5.081 -16.372  1.00 32.92    -0.647 OA
ENDBRANCH  16  17
ENDBRANCH  15  16
ENDBRANCH  14  15
END_RES GLU D 570
ENDMDL
MODEL 2
REMARK VINA RESULT:      -5.7      2.165      3.138
REMARK  7 active torsions:
REMARK  status: ('A' for Active; 'I' for Inactive)
REMARK    1  A    between atoms: C_1  and  C_2 
REMARK    2  A    between atoms: C_1  and  C_7 
REMARK    3  A    between atoms: C_2  and  C_3 
REMARK    4  A    between atoms: C_3  and  C_4 
REMARK    5  A    between atoms: C_4  and  O_6 
REMARK    6  A    between atoms: C_7  and  C_8 
REMARK    7  A    between atoms: C_8  and  O_10 
ROOT
HETATM    1  C   UNL     1     -21.294  -4.456  -8.860  1.00  0.00     0.011 C 
ENDROOT
BRANCH   1   2
HETATM    2  C   UNL     1     -22.111  -3.876 -10.018  1.00  0.00     0.011 C 
BRANCH   2   3
HETATM    3  C   UNL     1     -23.485  -4.525 -10.159  1.00  0.00     0.110 C 
BRANCH   3   4
HETATM    4  C   UNL     1     -24.566  -3.482 -10.252  1.00  0.00     0.139 C 
HETATM    5  O   UNL     1     -25.110  -3.162 -11.297  1.00  0.00    -0.650 OA
BRANCH   4   6
HETATM    6  O   UNL     1     -24.867  -2.908  -9.067  1.00  0.00    -0.776 OA
HETATM    7  H   UNL     1     -24.089  -2.644  -8.542  1.00  0.00     0.167 HD
ENDBRANCH   4   6
ENDBRANCH   3   4
ENDBRANCH   2   3
ENDBRANCH   1   2
BRANCH   1   8
HETATM    8  C   UNL     1     -21.638  -3.830  -7.507  1.00  0.00     0.110 C 
BRANCH   8   9
HETATM    9  C   UNL     1     -22.505  -4.732  -6.664  1.00  0.00     0.139 C 
HETATM   10  O   UNL     1     -22.101  -5.625  -5.938  1.00  0.00    -0.650 OA
BRANCH   9  11
HETATM   11  O   UNL     1     -23.820  -4.427  -6.778  1.00  0.00    -0.776 OA
HETATM   12  H   UNL     1     -24.003  -3.685  -7.387  1.00  0.00     0.167 HD
ENDBRANCH   9  11
ENDBRANCH   8   9
ENDBRANCH   1   8
TORSDOF 7
BEGIN_RES ARG D 557
REMARK  4 active torsions:
REMARK  status: ('A' for Active; 'I' for Inactive)
REMARK    1  A    between atoms: CA   and  CB  
REMARK    2  A    between atoms: CB   and  CG  
REMARK    3  A    between atoms: CG   and  CD  
REMARK    4  A    between atoms: CD   and  NE  
REMARK       I    between atoms: NE   and  CZ  
REMARK       I    between atoms: CZ   and  NH1 
REMARK       I    between atoms: CZ   and  NH2 
ROOT
ATOM      1  CA  ARG D 557     -26.217   2.705 -17.014  1.00 35.49     0.159 C 
ENDROOT
BRANCH   1   2
ATOM      2  CB  ARG D 557     -26.789   1.319 -17.183  1.00 35.49     0.034 C 
BRANCH   2   3
ATOM      3  CG  ARG D 557     -25.857   0.196 -17.025  1.00 35.49     0.027 C 
BRANCH   3   4
ATOM      4  CD  ARG D 557     -26.211  -0.674 -15.880  1.00 35.49     0.116 C 
BRANCH   4   5
ATOM      5  NE  ARG D 557     -25.100  -0.876 -14.988  1.00 35.49    -0.212 N 
ATOM      6  CZ  ARG D 557     -24.810  -1.995 -14.362  1.00 35.49     0.666 C 
ATOM      7  NH1 ARG D 557     -25.545  -3.085 -14.482  1.00 35.49    -0.235 N 
ATOM      8  NH2 ARG D 557     -23.750  -2.003 -13.608  1.00 35.49    -0.235 N 
ATOM      9  HH  ARG D 557     -26.246  -3.102 -14.975  1.00 35.49     0.174 HD
ATOM     10  HH  ARG D 557     -25.306  -3.786 -14.052  1.00 35.49     0.174 HD
ATOM     11  HH  ARG D 557     -23.290  -1.287 -13.556  1.00 35.49     0.174 HD
ATOM     12  HH  ARG D 557     -23.528  -2.708 -13.192  1.00 35.49     0.174 HD
ATOM     13  HE  ARG D 557     -24.614  -0.204 -14.796  1.00 35.49     0.178 HD
ENDBRANCH   4   5
ENDBRANCH   3   4
ENDBRANCH   2   3
ENDBRANCH   1   2
END_RES ARG D 557
BEGIN_RES GLU D 570
REMARK  3 active torsions:
REMARK  status: ('A' for Active; 'I' for Inactive)
REMARK    5  A    between atoms: CA   and  CB  
REMARK    6  A    between atoms: CB   and  CG  
REMARK    7  A    between atoms: CG   and  CD  
ROOT
ATOM     14  CA  GLU D 570     -18.033  -6.348 -13.375  1.00 32.92     0.160 C 
ENDROOT
BRANCH  14  15
ATOM     15  CB  GLU D 570     -19.500  -6.345 -13.794  1.00 32.92     0.043 C 
BRANCH  15  16
ATOM     16  CG  GLU D 570     -20.420  -5.440 -13.058  1.00 32.92     0.100 C 
BRANCH  16  17
ATOM     17  CD  GLU D 570     -21.640  -5.058 -13.863  1.00 32.92     0.185 C 
ATOM     18  OE1 GLU D 570     -22.737  -4.943 -13.283  1.00 32.92    -0.647 OA
ATOM     19  OE2 GLU D 570     -21.500  -4.887 -15.090  1.00 32.92    -0.647 OA
ENDBRANCH  16  17
ENDBRANCH  15  16
ENDBRANCH  14  15
END_RES GLU D 570
ENDMDL
MODEL 3
REMARK VINA RESULT:      -5.6      2.420      4.025
REMARK  7 active torsions:
REMARK  status: ('A' for Active; 'I' for Inactive)
REMARK    1  A    between atoms: C_1  and  C_2 
REMARK    2  A    between atoms: C_1  and  C_7 
REMARK    3  A    between atoms: C_2  and  C_3 
REMARK    4  A    between atoms: C_3  and  C_4 
REMARK    5  A    between atoms: C_4  and  O_6 
REMARK    6  A    between atoms: C_7  and  C_8 
REMARK    7  A    between atoms: C_8  and  O_10 
ROOT
HETATM    1  C   UNL     1     -21.783  -3.713 -10.156  1.00  0.00     0.011 C 
ENDROOT
BRANCH   1   2
HETATM    2  C   UNL     1     -20.716  -4.435  -9.329  1.00  0.00     0.011 C 
BRANCH   2   3
HETATM    3  C   UNL     1     -20.817  -4.135  -7.837  1.00  0.00     0.110 C 
BRANCH   3   4
HETATM    4  C   UNL     1     -21.482  -5.269  -7.103  1.00  0.00     0.139 C 
HETATM    5  O   UNL     1     -21.047  -6.409  -7.082  1.00  0.00    -0.650 OA
BRANCH   4   6
HETATM    6  O   UNL     1     -22.628  -4.912  -6.484  1.00  0.00    -0.776 OA
HETATM    7  H   UNL     1     -22.734  -3.950  -6.363  1.00  0.00     0.167 HD
ENDBRANCH   4   6
ENDBRANCH   3   4
ENDBRANCH   2   3
ENDBRANCH   1   2
BRANCH   1   8
HETATM    8  C   UNL     1     -23.080  -4.513 -10.296  1.00  0.00     0.110 C 
BRANCH   8   9
HETATM    9  C   UNL     1     -24.292  -3.712  -9.887  1.00  0.00     0.139 C 
HETATM   10  O   UNL     1     -25.099  -3.210 -10.652  1.00  0.00    -0.650 OA
BRANCH   9  11
HETATM   11  O   UNL     1     -24.413  -3.623  -8.541  1.00  0.00    -0.776 OA
HETATM   12  H   UNL     1     -25.075  -2.969  -8.245  1.00  0.00     0.167 HD
ENDBRANCH   9  11
ENDBRANCH   8   9
ENDBRANCH   1   8
TORSDOF 7
BEGIN_RES ARG D 557
REMARK  4 active torsions:
REMARK  status: ('A' for Active; 'I' for Inactive)
REMARK    1  A    between atoms: CA   and  CB  
REMARK    2  A    between atoms: CB   and  CG  
REMARK    3  A    between atoms: CG   and  CD  
REMARK    4  A    between atoms: CD   and  NE  
REMARK       I    between atoms: NE   and  CZ  
REMARK       I    between atoms: CZ   and  NH1 
REMARK       I    between atoms: CZ   and  NH2 
ROOT
ATOM      1  CA  ARG D 557     -26.217   2.705 -17.014  1.00 35.49     0.159 C 
ENDROOT
BRANCH   1   2
ATOM      2  CB  ARG D 557     -26.789   1.319 -17.183  1.00 35.49     0.034 C 
BRANCH   2   3
ATOM      3  CG  ARG D 557     -25.837   0.202 -17.143  1.00 35.49     0.027 C 
BRANCH   3   4
ATOM      4  CD  ARG D 557     -24.764   0.410 -16.144  1.00 35.49     0.116 C 
BRANCH   4   5
ATOM      5  NE  ARG D 557     -24.918  -0.445 -14.997  1.00 35.49    -0.212 N 
ATOM      6  CZ  ARG D 557     -24.107  -1.419 -14.651  1.00 35.49     0.666 C 
ATOM      7  NH1 ARG D 557     -23.035  -1.733 -15.354  1.00 35.49    -0.235 N 
ATOM      8  NH2 ARG D 557     -24.390  -2.079 -13.565  1.00 35.49    -0.235 N 
ATOM      9  HH  ARG D 557     -22.828  -1.311 -16.071  1.00 35.49     0.174 HD
ATOM     10  HH  ARG D 557     -22.541  -2.377 -15.078  1.00 35.49     0.174 HD
ATOM     11  HH  ARG D 557     -25.084  -1.849 -13.127  1.00 35.49     0.174 HD
ATOM     12  HH  ARG D 557     -23.888  -2.712 -13.308  1.00 35.49     0.174 HD
ATOM     13  HE  ARG D 557     -25.622  -0.360 -14.527  1.00 35.49     0.178 HD
ENDBRANCH   4   5
ENDBRANCH   3   4
ENDBRANCH   2   3
ENDBRANCH   1   2
END_RES ARG D 557
BEGIN_RES GLU D 570
REMARK  3 active torsions:
REMARK  status: ('A' for Active; 'I' for Inactive)
REMARK    5  A    between atoms: CA   and  CB  
REMARK    6  A    between atoms: CB   and  CG  
REMARK    7  A    between atoms: CG   and  CD  
ROOT
ATOM     14  CA  GLU D 570     -18.033  -6.348 -13.375  1.00 32.92     0.160 C 
ENDROOT
BRANCH  14  15
ATOM     15  CB  GLU D 570     -19.500  -6.345 -13.794  1.00 32.92     0.043 C 
BRANCH  15  16
ATOM     16  CG  GLU D 570     -20.436  -5.504 -13.004  1.00 32.92     0.100 C 
BRANCH  16  17
ATOM     17  CD  GLU D 570     -21.742  -5.246 -13.718  1.00 32.92     0.185 C 
ATOM     18  OE1 GLU D 570     -22.274  -6.171 -14.360  1.00 32.92    -0.647 OA
ATOM     19  OE2 GLU D 570     -22.230  -4.101 -13.647  1.00 32.92    -0.647 OA
ENDBRANCH  16  17
ENDBRANCH  15  16
ENDBRANCH  14  15
END_RES GLU D 570
ENDMDL
MODEL 4
REMARK VINA RESULT:      -5.6      2.711      3.497
REMARK  7 active torsions:
REMARK  status: ('A' for Active; 'I' for Inactive)
REMARK    1  A    between atoms: C_1  and  C_2 
REMARK    2  A    between atoms: C_1  and  C_7 
REMARK    3  A    between atoms: C_2  and  C_3 
REMARK    4  A    between atoms: C_3  and  C_4 
REMARK    5  A    between atoms: C_4  and  O_6 
REMARK    6  A    between atoms: C_7  and  C_8 
REMARK    7  A    between atoms: C_8  and  O_10 
ROOT
HETATM    1  C   UNL     1     -23.247  -3.275 -13.635  1.00  0.00     0.011 C 
ENDROOT
BRANCH   1   2
HETATM    2  C   UNL     1     -22.751  -4.582 -14.260  1.00  0.00     0.011 C 
BRANCH   2   3
HETATM    3  C   UNL     1     -23.618  -5.782 -13.893  1.00  0.00     0.110 C 
BRANCH   3   4
HETATM    4  C   UNL     1     -24.470  -6.208 -15.058  1.00  0.00     0.139 C 
HETATM    5  O   UNL     1     -24.411  -7.315 -15.571  1.00  0.00    -0.650 OA
BRANCH   4   6
HETATM    6  O   UNL     1     -25.298  -5.239 -15.505  1.00  0.00    -0.776 OA
HETATM    7  H   UNL     1     -25.823  -4.808 -14.805  1.00  0.00     0.167 HD
ENDBRANCH   4   6
ENDBRANCH   3   4
ENDBRANCH   2   3
ENDBRANCH   1   2
BRANCH   1   8
HETATM    8  C   UNL     1     -23.443  -2.155 -14.658  1.00  0.00     0.110 C 
BRANCH   8   9
HETATM    9  C   UNL     1     -24.872  -1.671 -14.708  1.00  0.00     0.139 C 
HETATM   10  O   UNL     1     -25.861  -2.385 -14.707  1.00  0.00    -0.650 OA
BRANCH   9  11
HETATM   11  O   UNL     1     -24.951  -0.319 -14.731  1.00  0.00    -0.776 OA
HETATM   12  H   UNL     1     -25.716   0.041 -14.243  1.00  0.00     0.167 HD
ENDBRANCH   9  11
ENDBRANCH   8   9
ENDBRANCH   1   8
TORSDOF 7
BEGIN_RES ARG D 557
REMARK  4 active torsions:
REMARK  status: ('A' for Active; 'I' for Inactive)
REMARK    1  A    between atoms: CA   and  CB  
REMARK    2  A    between atoms: CB   and  CG  
REMARK    3  A    between atoms: CG   and  CD  
REMARK    4  A    between atoms: CD   and  NE  
REMARK       I    between atoms: NE   and  CZ  
REMARK       I    between atoms: CZ   and  NH1 
REMARK       I    between atoms: CZ   and  NH2 
ROOT
ATOM      1  CA  ARG D 557     -26.217   2.705 -17.014  1.00 35.49     0.159 C 
ENDROOT
BRANCH   1   2
ATOM      2  CB  ARG D 557     -26.789   1.319 -17.183  1.00 35.49     0.034 C 
BRANCH   2   3
ATOM      3  CG  ARG D 557     -28.134   1.089 -16.642  1.00 35.49     0.027 C 
BRANCH   3   4
ATOM      4  CD  ARG D 557     -28.769  -0.125 -17.205  1.00 35.49     0.116 C 
BRANCH   4   5
ATOM      5  NE  ARG D 557     -28.118  -1.331 -16.765  1.00 35.49    -0.212 N 
ATOM      6  CZ  ARG D 557     -28.546  -2.555 -16.975  1.00 35.49     0.666 C 
ATOM      7  NH1 ARG D 557     -29.667  -2.813 -17.623  1.00 35.49    -0.235 N 
ATOM      8  NH2 ARG D 557     -27.816  -3.533 -16.522  1.00 35.49    -0.235 N 
ATOM      9  HH  ARG D 557     -30.163  -2.185 -17.931  1.00 35.49     0.174 HD
ATOM     10  HH  ARG D 557     -29.895  -3.632 -17.732  1.00 35.49     0.174 HD
ATOM     11  HH  ARG D 557     -27.093  -3.336 -16.114  1.00 35.49     0.174 HD
ATOM     12  HH  ARG D 557     -28.058  -4.336 -16.642  1.00 35.49     0.174 HD
ATOM     13  HE  ARG D 557     -27.426  -1.256 -16.277  1.00 35.49     0.178 HD
ENDBRANCH   4   5
ENDBRANCH   3   4
ENDBRANCH   2   3
ENDBRANCH   1   2
END_RES ARG D 557
BEGIN_RES GLU D 570
REMARK  3 active torsions:
REMARK  status: ('A' for Active; 'I' for Inactive)
REMARK    5  A    between atoms: CA   and  CB  
REMARK    6  A    between atoms: CB   and  CG  
REMARK    7  A    between atoms: CG   and  CD  
ROOT
ATOM     14  CA  GLU D 570     -18.033  -6.348 -13.375  1.00 32.92     0.160 C 
ENDROOT
BRANCH  14  15
ATOM     15  CB  GLU D 570     -19.500  -6.345 -13.794  1.00 32.92     0.043 C 
BRANCH  15  16
ATOM     16  CG  GLU D 570     -20.092  -7.639 -14.221  1.00 32.92     0.100 C 
BRANCH  16  17
ATOM     17  CD  GLU D 570     -20.683  -7.586 -15.611  1.00 32.92     0.185 C 
ATOM     18  OE1 GLU D 570     -20.675  -6.505 -16.232  1.00 32.92    -0.647 OA
ATOM     19  OE2 GLU D 570     -21.175  -8.632 -16.078  1.00 32.92    -0.647 OA
ENDBRANCH  16  17
ENDBRANCH  15  16
ENDBRANCH  14  15
END_RES GLU D 570
ENDMDL
MODEL 5
REMARK VINA RESULT:      -5.5      2.074      2.556
REMARK  7 active torsions:
REMARK  status: ('A' for Active; 'I' for Inactive)
REMARK    1  A    between atoms: C_1  and  C_2 
REMARK    2  A    between atoms: C_1  and  C_7 
REMARK    3  A    between atoms: C_2  and  C_3 
REMARK    4  A    between atoms: C_3  and  C_4 
REMARK    5  A    between atoms: C_4  and  O_6 
REMARK    6  A    between atoms: C_7  and  C_8 
REMARK    7  A    between atoms: C_8  and  O_10 
ROOT
HETATM    1  C   UNL     1     -22.594  -4.696  -9.377  1.00  0.00     0.011 C 
ENDROOT
BRANCH   1   2
HETATM    2  C   UNL     1     -21.218  -4.076  -9.638  1.00  0.00     0.011 C 
BRANCH   2   3
HETATM    3  C   UNL     1     -20.776  -4.202 -11.093  1.00  0.00     0.110 C 
BRANCH   3   4
HETATM    4  C   UNL     1     -21.566  -3.275 -11.977  1.00  0.00     0.139 C 
HETATM    5  O   UNL     1     -21.797  -2.108 -11.700  1.00  0.00    -0.650 OA
BRANCH   4   6
HETATM    6  O   UNL     1     -22.020  -3.861 -13.106  1.00  0.00    -0.776 OA
HETATM    7  H   UNL     1     -22.456  -4.721 -12.961  1.00  0.00     0.167 HD
ENDBRANCH   4   6
ENDBRANCH   3   4
ENDBRANCH   2   3
ENDBRANCH   1   2
BRANCH   1   8
HETATM    8  C   UNL     1     -23.666  -3.660  -9.033  1.00  0.00     0.110 C 
BRANCH   8   9
HETATM    9  C   UNL     1     -24.738  -3.574 -10.092  1.00  0.00     0.139 C 
HETATM   10  O   UNL     1     -24.593  -3.861 -11.269  1.00  0.00    -0.650 OA
BRANCH   9  11
HETATM   11  O   UNL     1     -25.921  -3.155  -9.586  1.00  0.00    -0.776 OA
HETATM   12  H   UNL     1     -26.347  -2.448 -10.107  1.00  0.00     0.167 HD
ENDBRANCH   9  11
ENDBRANCH   8   9
ENDBRANCH   1   8
TORSDOF 7
BEGIN_RES ARG D 557
REMARK  4 active torsions:
REMARK  status: ('A' for Active; 'I' for Inactive)
REMARK    1  A    between atoms: CA   and  CB  
REMARK    2  A    between atoms: CB   and  CG  
REMARK    3  A    between atoms: CG   and  CD  
REMARK    4  A    between atoms: CD   and  NE  
REMARK       I    between atoms: NE   and  CZ  
REMARK       I    between atoms: CZ   and  NH1 
REMARK       I    between atoms: CZ   and  NH2 
ROOT
ATOM      1  CA  ARG D 557     -26.217   2.705 -17.014  1.00 35.49     0.159 C 
ENDROOT
BRANCH   1   2
ATOM      2  CB  ARG D 557     -26.789   1.319 -17.183  1.00 35.49     0.034 C 
BRANCH   2   3
ATOM      3  CG  ARG D 557     -25.832   0.206 -17.193  1.00 35.49     0.027 C 
BRANCH   3   4
ATOM      4  CD  ARG D 557     -24.747   0.386 -16.202  1.00 35.49     0.116 C 
BRANCH   4   5
ATOM      5  NE  ARG D 557     -24.921  -0.455 -15.047  1.00 35.49    -0.212 N 
ATOM      6  CZ  ARG D 557     -24.113  -1.422 -14.672  1.00 35.49     0.666 C 
ATOM      7  NH1 ARG D 557     -23.026  -1.741 -15.351  1.00 35.49    -0.235 N 
ATOM      8  NH2 ARG D 557     -24.416  -2.070 -13.585  1.00 35.49    -0.235 N 
ATOM      9  HH  ARG D 557     -22.807  -1.327 -16.068  1.00 35.49     0.174 HD
ATOM     10  HH  ARG D 557     -22.536  -2.379 -15.057  1.00 35.49     0.174 HD
ATOM     11  HH  ARG D 557     -25.120  -1.837 -13.164  1.00 35.49     0.174 HD
ATOM     12  HH  ARG D 557     -23.917  -2.697 -13.309  1.00 35.49     0.174 HD
ATOM     13  HE  ARG D 557     -25.634  -0.367 -14.593  1.00 35.49     0.178 HD
ENDBRANCH   4   5
ENDBRANCH   3   4
ENDBRANCH   2   3
ENDBRANCH   1   2
END_RES ARG D 557
BEGIN_RES GLU D 570
REMARK  3 active torsions:
REMARK  status: ('A' for Active; 'I' for Inactive)
REMARK    5  A    between atoms: CA   and  CB  
REMARK    6  A    between atoms: CB   and  CG  
REMARK    7  A    between atoms: CG   and  CD  
ROOT
ATOM     14  CA  GLU D 570     -18.033  -6.348 -13.375  1.00 32.92     0.160 C 
ENDROOT
BRANCH  14  15
ATOM     15  CB  GLU D 570     -19.500  -6.345 -13.794  1.00 32.92     0.043 C 
BRANCH  15  16
ATOM     16  CG  GLU D 570     -19.804  -6.067 -15.222  1.00 32.92     0.100 C 
BRANCH  16  17
ATOM     17  CD  GLU D 570     -21.276  -5.843 -15.478  1.00 32.92     0.185 C 
ATOM     18  OE1 GLU D 570     -22.064  -6.799 -15.351  1.00 32.92    -0.647 OA
ATOM     19  OE2 GLU D 570     -21.642  -4.704 -15.827  1.00 32.92    -0.647 OA
ENDBRANCH  16  17
ENDBRANCH  15  16
ENDBRANCH  14  15
END_RES GLU D 570
ENDMDL
MODEL 6
REMARK VINA RESULT:      -5.5      4.221      6.594
REMARK  7 active torsions:
REMARK  status: ('A' for Active; 'I' for Inactive)
REMARK    1  A    between atoms: C_1  and  C_2 
REMARK    2  A    between atoms: C_1  and  C_7 
REMARK    3  A    between atoms: C_2  and  C_3 
REMARK    4  A    between atoms: C_3  and  C_4 
REMARK    5  A    between atoms: C_4  and  O_6 
REMARK    6  A    between atoms: C_7  and  C_8 
REMARK    7  A    between atoms: C_8  and  O_10 
ROOT
HETATM    1  C   UNL     1     -28.756  -5.575 -18.295  1.00  0.00     0.011 C 
ENDROOT
BRANCH   1   2
HETATM    2  C   UNL     1     -28.283  -4.672 -17.152  1.00  0.00     0.011 C 
BRANCH   2   3
HETATM    3  C   UNL     1     -28.017  -5.439 -15.861  1.00  0.00     0.110 C 
BRANCH   3   4
HETATM    4  C   UNL     1     -26.729  -6.213 -15.949  1.00  0.00     0.139 C 
HETATM    5  O   UNL     1     -25.677  -5.734 -16.346  1.00  0.00    -0.650 OA
BRANCH   4   6
HETATM    6  O   UNL     1     -26.846  -7.503 -15.568  1.00  0.00    -0.776 OA
HETATM    7  H   UNL     1     -27.266  -8.080 -16.234  1.00  0.00     0.167 HD
ENDBRANCH   4   6
ENDBRANCH   3   4
ENDBRANCH   2   3
ENDBRANCH   1   2
BRANCH   1   8
HETATM    8  C   UNL     1     -30.038  -6.342 -17.965  1.00  0.00     0.110 C 
BRANCH   8   9
HETATM    9  C   UNL     1     -29.881  -7.830 -18.167  1.00  0.00     0.139 C 
HETATM   10  O   UNL     1     -30.251  -8.452 -19.148  1.00  0.00    -0.650 OA
BRANCH   9  11
HETATM   11  O   UNL     1     -29.248  -8.421 -17.126  1.00  0.00    -0.776 OA
HETATM   12  H   UNL     1     -28.614  -7.838 -16.666  1.00  0.00     0.167 HD
ENDBRANCH   9  11
ENDBRANCH   8   9
ENDBRANCH   1   8
TORSDOF 7
BEGIN_RES ARG D 557
REMARK  4 active torsions:
REMARK  status: ('A' for Active; 'I' for Inactive)
REMARK    1  A    between atoms: CA   and  CB  
REMARK    2  A    between atoms: CB   and  CG  
REMARK    3  A    between atoms: CG   and  CD  
REMARK    4  A    between atoms: CD   and  NE  
REMARK       I    between atoms: NE   and  CZ  
REMARK       I    between atoms: CZ   and  NH1 
REMARK       I    between atoms: CZ   and  NH2 
ROOT
ATOM      1  CA  ARG D 557     -26.217   2.705 -17.014  1.00 35.49     0.159 C 
ENDROOT
BRANCH   1   2
ATOM      2  CB  ARG D 557     -26.789   1.319 -17.183  1.00 35.49     0.034 C 
BRANCH   2   3
ATOM      3  CG  ARG D 557     -25.861   0.195 -17.008  1.00 35.49     0.027 C 
BRANCH   3   4
ATOM      4  CD  ARG D 557     -26.252  -0.690 -15.887  1.00 35.49     0.116 C 
BRANCH   4   5
ATOM      5  NE  ARG D 557     -25.180  -0.880 -14.946  1.00 35.49    -0.212 N 
ATOM      6  CZ  ARG D 557     -24.860  -2.015 -14.364  1.00 35.49     0.666 C 
ATOM      7  NH1 ARG D 557     -25.525  -3.135 -14.582  1.00 35.49    -0.235 N 
ATOM      8  NH2 ARG D 557     -23.843  -2.007 -13.553  1.00 35.49    -0.235 N 
ATOM      9  HH  ARG D 557     -26.196  -3.163 -15.113  1.00 35.49     0.174 HD
ATOM     10  HH  ARG D 557     -25.269  -3.845 -14.176  1.00 35.49     0.174 HD
ATOM     11  HH  ARG D 557     -23.428  -1.271 -13.438  1.00 35.49     0.174 HD
ATOM     12  HH  ARG D 557     -23.604  -2.721 -13.162  1.00 35.49     0.174 HD
ATOM     13  HE  ARG D 557     -24.745  -0.195 -14.693  1.00 35.49     0.178 HD
ENDBRANCH   4   5
ENDBRANCH   3   4
ENDBRANCH   2   3
ENDBRANCH   1   2
END_RES ARG D 557
BEGIN_RES GLU D 570
REMARK  3 active torsions:
REMARK  status: ('A' for Active; 'I' for Inactive)
REMARK    5  A    between atoms: CA   and  CB  
REMARK    6  A    between atoms: CB   and  CG  
REMARK    7  A    between atoms: CG   and  CD  
ROOT
ATOM     14  CA  GLU D 570     -18.033  -6.348 -13.375  1.00 32.92     0.160 C 
ENDROOT
BRANCH  14  15
ATOM     15  CB  GLU D 570     -19.500  -6.345 -13.794  1.00 32.92     0.043 C 
BRANCH  15  16
ATOM     16  CG  GLU D 570     -20.450  -5.568 -12.956  1.00 32.92     0.100 C 
BRANCH  16  17
ATOM     17  CD  GLU D 570     -21.673  -5.115 -13.718  1.00 32.92     0.185 C 
ATOM     18  OE1 GLU D 570     -21.614  -5.023 -14.959  1.00 32.92    -0.647 OA
ATOM     19  OE2 GLU D 570     -22.698  -4.834 -13.065  1.00 32.92    -0.647 OA
ENDBRANCH  16  17
ENDBRANCH  15  16
ENDBRANCH  14  15
END_RES GLU D 570
ENDMDL
MODEL 7
REMARK VINA RESULT:      -5.4      4.238      6.476
REMARK  7 active torsions:
REMARK  status: ('A' for Active; 'I' for Inactive)
REMARK    1  A    between atoms: C_1  and  C_2 
REMARK    2  A    between atoms: C_1  and  C_7 
REMARK    3  A    between atoms: C_2  and  C_3 
REMARK    4  A    between atoms: C_3  and  C_4 
REMARK    5  A    between atoms: C_4  and  O_6 
REMARK    6  A    between atoms: C_7  and  C_8 
REMARK    7  A    between atoms: C_8  and  O_10 
ROOT
HETATM    1  C   UNL     1     -27.995  -5.221 -17.192  1.00  0.00     0.011 C 
ENDROOT
BRANCH   1   2
HETATM    2  C   UNL     1     -29.056  -5.479 -18.265  1.00  0.00     0.011 C 
BRANCH   2   3
HETATM    3  C   UNL     1     -30.194  -6.368 -17.773  1.00  0.00     0.110 C 
BRANCH   3   4
HETATM    4  C   UNL     1     -29.906  -7.818 -18.058  1.00  0.00     0.139 C 
HETATM    5  O   UNL     1     -30.269  -8.393 -19.073  1.00  0.00    -0.650 OA
BRANCH   4   6
HETATM    6  O   UNL     1     -29.224  -8.438 -17.071  1.00  0.00    -0.776 OA
HETATM    7  H   UNL     1     -28.392  -7.995 -16.822  1.00  0.00     0.167 HD
ENDBRANCH   4   6
ENDBRANCH   3   4
ENDBRANCH   2   3
ENDBRANCH   1   2
BRANCH   1   8
HETATM    8  C   UNL     1     -26.718  -6.038 -17.400  1.00  0.00     0.110 C 
BRANCH   8   9
HETATM    9  C   UNL     1     -26.081  -6.444 -16.093  1.00  0.00     0.139 C 
HETATM   10  O   UNL     1     -25.134  -5.886 -15.564  1.00  0.00    -0.650 OA
BRANCH   9  11
HETATM   11  O   UNL     1     -26.701  -7.511 -15.535  1.00  0.00    -0.776 OA
HETATM   12  H   UNL     1     -27.522  -7.287 -15.057  1.00  0.00     0.167 HD
ENDBRANCH   9  11
ENDBRANCH   8   9
ENDBRANCH   1   8
TORSDOF 7
BEGIN_RES ARG D 557
REMARK  4 active torsions:
REMARK  status: ('A' for Active; 'I' for Inactive)
REMARK    1  A    between atoms: CA   and  CB  
REMARK    2  A    between atoms: CB   and  CG  
REMARK    3  A    between atoms: CG   and  CD  
REMARK    4  A    between atoms: CD   and  NE  
REMARK       I    between atoms: NE   and  CZ  
REMARK       I    between atoms: CZ   and  NH1 
REMARK       I    between atoms: CZ   and  NH2 
ROOT
ATOM      1  CA  ARG D 557     -26.217   2.705 -17.014  1.00 35.49     0.159 C 
ENDROOT
BRANCH   1   2
ATOM      2  CB  ARG D 557     -26.789   1.319 -17.183  1.00 35.49     0.034 C 
BRANCH   2   3
ATOM      3  CG  ARG D 557     -25.865   0.195 -16.989  1.00 35.49     0.027 C 
BRANCH   3   4
ATOM      4  CD  ARG D 557     -26.291  -0.703 -15.892  1.00 35.49     0.116 C 
BRANCH   4   5
ATOM      5  NE  ARG D 557     -25.238  -0.933 -14.939  1.00 35.49    -0.212 N 
ATOM      6  CZ  ARG D 557     -24.981  -2.073 -14.337  1.00 35.49     0.666 C 
ATOM      7  NH1 ARG D 557     -25.699  -3.161 -14.543  1.00 35.49    -0.235 N 
ATOM      8  NH2 ARG D 557     -23.971  -2.104 -13.517  1.00 35.49    -0.235 N 
ATOM      9  HH  ARG D 557     -26.367  -3.163 -15.080  1.00 35.49     0.174 HD
ATOM     10  HH  ARG D 557     -25.483  -3.877 -14.125  1.00 35.49     0.174 HD
ATOM     11  HH  ARG D 557     -23.520  -1.388 -13.409  1.00 35.49     0.174 HD
ATOM     12  HH  ARG D 557     -23.771  -2.823 -13.113  1.00 35.49     0.174 HD
ATOM     13  HE  ARG D 557     -24.770  -0.266 -14.692  1.00 35.49     0.178 HD
ENDBRANCH   4   5
ENDBRANCH   3   4
ENDBRANCH   2   3
ENDBRANCH   1   2
END_RES ARG D 557
BEGIN_RES GLU D 570
REMARK  3 active torsions:
REMARK  status: ('A' for Active; 'I' for Inactive)
REMARK    5  A    between atoms: CA   and  CB  
REMARK    6  A    between atoms: CB   and  CG  
REMARK    7  A    between atoms: CG   and  CD  
ROOT
ATOM     14  CA  GLU D 570     -18.033  -6.348 -13.375  1.00 32.92     0.160 C 
ENDROOT
BRANCH  14  15
ATOM     15  CB  GLU D 570     -19.500  -6.345 -13.794  1.00 32.92     0.043 C 
BRANCH  15  16
ATOM     16  CG  GLU D 570     -20.447  -5.556 -12.965  1.00 32.92     0.100 C 
BRANCH  16  17
ATOM     17  CD  GLU D 570     -21.687  -5.139 -13.721  1.00 32.92     0.185 C 
ATOM     18  OE1 GLU D 570     -21.639  -5.059 -14.964  1.00 32.92    -0.647 OA
ATOM     19  OE2 GLU D 570     -22.712  -4.875 -13.063  1.00 32.92    -0.647 OA
ENDBRANCH  16  17
ENDBRANCH  15  16
ENDBRANCH  14  15
END_RES GLU D 570
ENDMDL
MODEL 8
REMARK VINA RESULT:      -5.4      0.941      3.268
REMARK  7 active torsions:
REMARK  status: ('A' for Active; 'I' for Inactive)
REMARK    1  A    between atoms: C_1  and  C_2 
REMARK    2  A    between atoms: C_1  and  C_7 
REMARK    3  A    between atoms: C_2  and  C_3 
REMARK    4  A    between atoms: C_3  and  C_4 
REMARK    5  A    between atoms: C_4  and  O_6 
REMARK    6  A    between atoms: C_7  and  C_8 
REMARK    7  A    between atoms: C_8  and  O_10 
ROOT
HETATM    1  C   UNL     1     -22.503  -2.993 -12.087  1.00  0.00     0.011 C 
ENDROOT
BRANCH   1   2
HETATM    2  C   UNL     1     -22.302  -3.855 -10.838  1.00  0.00     0.011 C 
BRANCH   2   3
HETATM    3  C   UNL     1     -23.541  -4.666 -10.470  1.00  0.00     0.110 C 
BRANCH   3   4
HETATM    4  C   UNL     1     -24.523  -3.829  -9.695  1.00  0.00     0.139 C 
HETATM    5  O   UNL     1     -25.509  -3.308 -10.192  1.00  0.00    -0.650 OA
BRANCH   4   6
HETATM    6  O   UNL     1     -24.199  -3.684  -8.392  1.00  0.00    -0.776 OA
HETATM    7  H   UNL     1     -24.321  -4.491  -7.858  1.00  0.00     0.167 HD
ENDBRANCH   4   6
ENDBRANCH   3   4
ENDBRANCH   2   3
ENDBRANCH   1   2
BRANCH   1   8
HETATM    8  C   UNL     1     -23.213  -3.733 -13.222  1.00  0.00     0.110 C 
BRANCH   8   9
HETATM    9  C   UNL     1     -22.945  -3.107 -14.569  1.00  0.00     0.139 C 
HETATM   10  O   UNL     1     -23.524  -2.134 -15.024  1.00  0.00    -0.650 OA
BRANCH   9  11
HETATM   11  O   UNL     1     -21.950  -3.738 -15.235  1.00  0.00    -0.776 OA
HETATM   12  H   UNL     1     -22.242  -4.530 -15.726  1.00  0.00     0.167 HD
ENDBRANCH   9  11
ENDBRANCH   8   9
ENDBRANCH   1   8
TORSDOF 7
BEGIN_RES ARG D 557
REMARK  4 active torsions:
REMARK  status: ('A' for Active; 'I' for Inactive)
REMARK    1  A    between atoms: CA   and  CB  
REMARK    2  A    between atoms: CB   and  CG  
REMARK    3  A    between atoms: CG   and  CD  
REMARK    4  A    between atoms: CD   and  NE  
REMARK       I    between atoms: NE   and  CZ  
REMARK       I    between atoms: CZ   and  NH1 
REMARK       I    between atoms: CZ   and  NH2 
ROOT
ATOM      1  CA  ARG D 557     -26.217   2.705 -17.014  1.00 35.49     0.159 C 
ENDROOT
BRANCH   1   2
ATOM      2  CB  ARG D 557     -26.789   1.319 -17.183  1.00 35.49     0.034 C 
BRANCH   2   3
ATOM      3  CG  ARG D 557     -28.251   1.197 -17.133  1.00 35.49     0.027 C 
BRANCH   3   4
ATOM      4  CD  ARG D 557     -28.692  -0.180 -16.813  1.00 35.49     0.116 C 
BRANCH   4   5
ATOM      5  NE  ARG D 557     -27.682  -0.922 -16.104  1.00 35.49    -0.212 N 
ATOM      6  CZ  ARG D 557     -27.507  -2.223 -16.156  1.00 35.49     0.666 C 
ATOM      7  NH1 ARG D 557     -28.277  -3.014 -16.881  1.00 35.49    -0.235 N 
ATOM      8  NH2 ARG D 557     -26.526  -2.725 -15.464  1.00 35.49    -0.235 N 
ATOM      9  HH  ARG D 557     -28.927  -2.705 -17.346  1.00 35.49     0.174 HD
ATOM     10  HH  ARG D 557     -28.113  -3.855 -16.878  1.00 35.49     0.174 HD
ATOM     11  HH  ARG D 557     -26.040  -2.189 -15.011  1.00 35.49     0.174 HD
ATOM     12  HH  ARG D 557     -26.379  -3.560 -15.475  1.00 35.49     0.174 HD
ATOM     13  HE  ARG D 557     -27.187  -0.500 -15.557  1.00 35.49     0.178 HD
ENDBRANCH   4   5
ENDBRANCH   3   4
ENDBRANCH   2   3
ENDBRANCH   1   2
END_RES ARG D 557
BEGIN_RES GLU D 570
REMARK  3 active torsions:
REMARK  status: ('A' for Active; 'I' for Inactive)
REMARK    5  A    between atoms: CA   and  CB  
REMARK    6  A    between atoms: CB   and  CG  
REMARK    7  A    between atoms: CG   and  CD  
ROOT
ATOM     14  CA  GLU D 570     -18.033  -6.348 -13.375  1.00 32.92     0.160 C 
ENDROOT
BRANCH  14  15
ATOM     15  CB  GLU D 570     -19.500  -6.345 -13.794  1.00 32.92     0.043 C 
BRANCH  15  16
ATOM     16  CG  GLU D 570     -20.077  -7.627 -14.274  1.00 32.92     0.100 C 
BRANCH  16  17
ATOM     17  CD  GLU D 570     -21.064  -7.443 -15.403  1.00 32.92     0.185 C 
ATOM     18  OE1 GLU D 570     -22.013  -6.649 -15.254  1.00 32.92    -0.647 OA
ATOM     19  OE2 GLU D 570     -20.896  -8.112 -16.441  1.00 32.92    -0.647 OA
ENDBRANCH  16  17
ENDBRANCH  15  16
ENDBRANCH  14  15
END_RES GLU D 570
ENDMDL
MODEL 9
REMARK VINA RESULT:      -5.3      6.580      8.186
REMARK  7 active torsions:
REMARK  status: ('A' for Active; 'I' for Inactive)
REMARK    1  A    between atoms: C_1  and  C_2 
REMARK    2  A    between atoms: C_1  and  C_7 
REMARK    3  A    between atoms: C_2  and  C_3 
REMARK    4  A    between atoms: C_3  and  C_4 
REMARK    5  A    between atoms: C_4  and  O_6 
REMARK    6  A    between atoms: C_7  and  C_8 
REMARK    7  A    between atoms: C_8  and  O_10 
ROOT
HETATM    1  C   UNL     1     -33.074  -3.396 -11.409  1.00  0.00     0.011 C 
ENDROOT
BRANCH   1   2
HETATM    2  C   UNL     1     -33.535  -2.226 -10.534  1.00  0.00     0.011 C 
BRANCH   2   3
HETATM    3  C   UNL     1     -35.001  -1.865 -10.750  1.00  0.00     0.110 C 
BRANCH   3   4
HETATM    4  C   UNL     1     -35.183  -1.088 -12.026  1.00  0.00     0.139 C 
HETATM    5  O   UNL     1     -34.800   0.062 -12.179  1.00  0.00    -0.650 OA
BRANCH   4   6
HETATM    6  O   UNL     1     -35.834  -1.774 -12.990  1.00  0.00    -0.776 OA
HETATM    7  H   UNL     1     -35.566  -1.540 -13.898  1.00  0.00     0.167 HD
ENDBRANCH   4   6
ENDBRANCH   3   4
ENDBRANCH   2   3
ENDBRANCH   1   2
BRANCH   1   8
HETATM    8  C   UNL     1     -33.673  -4.738 -10.985  1.00  0.00     0.110 C 
BRANCH   8   9
HETATM    9  C   UNL     1     -34.590  -5.312 -12.038  1.00  0.00     0.139 C 
HETATM   10  O   UNL     1     -35.122  -4.678 -12.933  1.00  0.00    -0.650 OA
BRANCH   9  11
HETATM   11  O   UNL     1     -34.748  -6.649 -11.900  1.00  0.00    -0.776 OA
HETATM   12  H   UNL     1     -33.958  -7.169 -12.144  1.00  0.00     0.167 HD
ENDBRANCH   9  11
ENDBRANCH   8   9
ENDBRANCH   1   8
TORSDOF 7
BEGIN_RES ARG D 557
REMARK  4 active torsions:
REMARK  status: ('A' for Active; 'I' for Inactive)
REMARK    1  A    between atoms: CA   and  CB  
REMARK    2  A    between atoms: CB   and  CG  
REMARK    3  A    between atoms: CG   and  CD  
REMARK    4  A    between atoms: CD   and  NE  
REMARK       I    between atoms: NE   and  CZ  
REMARK       I    between atoms: CZ   and  NH1 
REMARK       I    between atoms: CZ   and  NH2 
ROOT
ATOM      1  CA  ARG D 557     -26.217   2.705 -17.014  1.00 35.49     0.159 C 
ENDROOT
BRANCH   1   2
ATOM      2  CB  ARG D 557     -26.789   1.319 -17.183  1.00 35.49     0.034 C 
BRANCH   2   3
ATOM      3  CG  ARG D 557     -28.231   1.167 -16.953  1.00 35.49     0.027 C 
BRANCH   3   4
ATOM      4  CD  ARG D 557     -28.614  -0.239 -16.687  1.00 35.49     0.116 C 
BRANCH   4   5
ATOM      5  NE  ARG D 557     -27.588  -0.957 -15.978  1.00 35.49    -0.212 N 
ATOM      6  CZ  ARG D 557     -27.366  -2.250 -16.049  1.00 35.49     0.666 C 
ATOM      7  NH1 ARG D 557     -28.100  -3.055 -16.796  1.00 35.49    -0.235 N 
ATOM      8  NH2 ARG D 557     -26.377  -2.729 -15.353  1.00 35.49    -0.235 N 
ATOM      9  HH  ARG D 557     -28.754  -2.761 -17.264  1.00 35.49     0.174 HD
ATOM     10  HH  ARG D 557     -27.906  -3.890 -16.805  1.00 35.49     0.174 HD
ATOM     11  HH  ARG D 557     -25.916  -2.184 -14.885  1.00 35.49     0.174 HD
ATOM     12  HH  ARG D 557     -26.201  -3.558 -15.376  1.00 35.49     0.174 HD
ATOM     13  HE  ARG D 557     -27.115  -0.527 -15.418  1.00 35.49     0.178 HD
ENDBRANCH   4   5
ENDBRANCH   3   4
ENDBRANCH   2   3
ENDBRANCH   1   2
END_RES ARG D 557
BEGIN_RES GLU D 570
REMARK  3 active torsions:
REMARK  status: ('A' for Active; 'I' for Inactive)
REMARK    5  A    between atoms: CA   and  CB  
REMARK    6  A    between atoms: CB   and  CG  
REMARK    7  A    between atoms: CG   and  CD  
ROOT
ATOM     14  CA  GLU D 570     -18.033  -6.348 -13.375  1.00 32.92     0.160 C 
ENDROOT
BRANCH  14  15
ATOM     15  CB  GLU D 570     -19.500  -6.345 -13.794  1.00 32.92     0.043 C 
BRANCH  15  16
ATOM     16  CG  GLU D 570     -20.442  -5.531 -12.983  1.00 32.92     0.100 C 
BRANCH  16  17
ATOM     17  CD  GLU D 570     -21.750  -5.263 -13.691  1.00 32.92     0.185 C 
ATOM     18  OE1 GLU D 570     -22.207  -6.126 -14.465  1.00 32.92    -0.647 OA
ATOM     19  OE2 GLU D 570     -22.314  -4.171 -13.482  1.00 32.92    -0.647 OA
ENDBRANCH  16  17
ENDBRANCH  15  16
ENDBRANCH  14  15
END_RES GLU D 570
ENDMDL
