MODEL 1
REMARK VINA RESULT:      -6.6      0.000      0.000
REMARK  32 active torsions:
REMARK  status: ('A' for Active; 'I' for Inactive)
REMARK    1  A    between atoms: C_2  and  C_3 
REMARK    2  A    between atoms: C_3  and  C_4 
REMARK    3  A    between atoms: C_4  and  C_5 
REMARK    4  A    between atoms: C_5  and  C_6 
REMARK    5  A    between atoms: C_6  and  C_7 
REMARK    6  A    between atoms: C_7  and  C_8 
REMARK    7  A    between atoms: C_8  and  C_9 
REMARK    8  A    between atoms: C_9  and  C_10 
REMARK    9  A    between atoms: C_10  and  C_11 
REMARK   10  A    between atoms: C_11  and  C_12 
REMARK   11  A    between atoms: C_12  and  O_13 
REMARK   12  A    between atoms: O_13  and  C_14 
REMARK   13  A    between atoms: C_14  and  C_15 
REMARK   14  A    between atoms: C_15  and  O_16 
REMARK   15  A    between atoms: O_16  and  C_17 
REMARK   16  A    between atoms: C_17  and  C_18 
REMARK   17  A    between atoms: C_18  and  O_19 
REMARK   18  A    between atoms: O_19  and  C_20 
REMARK   19  A    between atoms: C_20  and  C_21 
REMARK   20  A    between atoms: C_21  and  O_22 
REMARK   21  A    between atoms: O_22  and  C_23 
REMARK   22  A    between atoms: C_23  and  C_24 
REMARK   23  A    between atoms: C_24  and  O_25 
REMARK   24  A    between atoms: O_25  and  C_26 
REMARK   25  A    between atoms: C_26  and  C_27 
REMARK   26  A    between atoms: C_27  and  O_28 
REMARK   27  A    between atoms: O_28  and  C_29 
REMARK   28  A    between atoms: C_29  and  C_30 
REMARK   29  A    between atoms: C_30  and  O_31 
REMARK   30  A    between atoms: O_31  and  C_32 
REMARK   31  A    between atoms: C_32  and  C_33 
REMARK   32  A    between atoms: C_33  and  O_34 
ROOT
HETATM    1  C   UNL     1     -27.803  -6.289 -16.995  1.00  0.00     0.193 C 
ENDROOT
BRANCH   1   2
HETATM    2  C   UNL     1     -27.814  -7.047 -15.681  1.00  0.00     0.193 C 
BRANCH   2   3
HETATM    3  O   UNL     1     -26.478  -7.461 -15.391  1.00  0.00    -0.387 OA
BRANCH   3   4
HETATM    4  C   UNL     1     -25.526  -6.633 -16.044  1.00  0.00     0.193 C 
BRANCH   4   5
HETATM    5  C   UNL     1     -24.427  -6.303 -15.053  1.00  0.00     0.193 C 
BRANCH   5   6
HETATM    6  O   UNL     1     -24.354  -4.892 -14.919  1.00  0.00    -0.389 OA
BRANCH   6   7
HETATM    7  C   UNL     1     -23.095  -4.503 -14.383  1.00  0.00     0.167 C 
BRANCH   7   8
HETATM    8  C   UNL     1     -23.184  -3.054 -13.942  1.00  0.00     0.026 C 
BRANCH   8   9
HETATM    9  C   UNL     1     -23.315  -2.984 -12.428  1.00  0.00     0.002 C 
BRANCH   9  10
HETATM   10  C   UNL     1     -22.556  -4.119 -11.763  1.00  0.00     0.000 C 
BRANCH  10  11
HETATM   11  C   UNL     1     -23.394  -4.717 -10.642  1.00  0.00     0.000 C 
BRANCH  11  12
HETATM   12  C   UNL     1     -22.582  -4.788  -9.358  1.00  0.00     0.000 C 
BRANCH  12  13
HETATM   13  C   UNL     1     -21.619  -3.613  -9.277  1.00  0.00     0.000 C 
BRANCH  13  14
HETATM   14  C   UNL     1     -20.242  -4.090  -8.841  1.00  0.00     0.000 C 
BRANCH  14  15
HETATM   15  C   UNL     1     -20.357  -5.375  -8.032  1.00  0.00     0.000 C 
BRANCH  15  16
HETATM   16  C   UNL     1     -19.544  -5.267  -6.749  1.00  0.00    -0.000 C 
BRANCH  16  17
HETATM   17  C   UNL     1     -20.453  -5.016  -5.551  1.00  0.00    -0.005 C 
HETATM   18  C   UNL     1     -21.748  -5.797  -5.685  1.00  0.00     0.005 C 
ENDBRANCH  16  17
ENDBRANCH  15  16
ENDBRANCH  14  15
ENDBRANCH  13  14
ENDBRANCH  12  13
ENDBRANCH  11  12
ENDBRANCH  10  11
ENDBRANCH   9  10
ENDBRANCH   8   9
ENDBRANCH   7   8
ENDBRANCH   6   7
ENDBRANCH   5   6
ENDBRANCH   4   5
ENDBRANCH   3   4
ENDBRANCH   2   3
ENDBRANCH   1   2
BRANCH   1  19
HETATM   19  O   UNL     1     -28.852  -5.324 -16.958  1.00  0.00    -0.387 OA
BRANCH  19  20
HETATM   20  C   UNL     1     -29.999  -5.787 -17.670  1.00  0.00     0.193 C 
BRANCH  20  21
HETATM   21  C   UNL     1     -31.249  -5.405 -16.900  1.00  0.00     0.193 C 
BRANCH  21  22
HETATM   22  O   UNL     1     -31.411  -3.991 -16.962  1.00  0.00    -0.387 OA
BRANCH  22  23
HETATM   23  C   UNL     1     -32.761  -3.645 -17.246  1.00  0.00     0.193 C 
BRANCH  23  24
HETATM   24  C   UNL     1     -33.639  -4.164 -16.123  1.00  0.00     0.193 C 
BRANCH  24  25
HETATM   25  O   UNL     1     -34.660  -3.205 -15.852  1.00  0.00    -0.387 OA
BRANCH  25  26
HETATM   26  C   UNL     1     -34.762  -2.264 -16.911  1.00  0.00     0.193 C 
BRANCH  26  27
HETATM   27  C   UNL     1     -35.550  -1.065 -16.414  1.00  0.00     0.193 C 
BRANCH  27  28
HETATM   28  O   UNL     1     -35.059  -0.684 -15.130  1.00  0.00    -0.387 OA
BRANCH  28  29
HETATM   29  C   UNL     1     -35.754   0.454 -14.625  1.00  0.00     0.193 C 
BRANCH  29  30
HETATM   30  C   UNL     1     -36.929  -0.017 -13.781  1.00  0.00     0.193 C 
BRANCH  30  31
HETATM   31  O   UNL     1     -36.575  -1.222 -13.103  1.00  0.00    -0.387 OA
BRANCH  31  32
HETATM   32  C   UNL     1     -35.730  -0.958 -11.982  1.00  0.00     0.193 C 
BRANCH  32  33
HETATM   33  C   UNL     1     -34.831  -2.160 -11.761  1.00  0.00     0.190 C 
BRANCH  33  34
HETATM   34  O   UNL     1     -34.271  -2.584 -12.997  1.00  0.00    -0.399 OA
HETATM   35  H   UNL     1     -34.232  -3.556 -12.977  1.00  0.00     0.209 HD
ENDBRANCH  33  34
ENDBRANCH  32  33
ENDBRANCH  31  32
ENDBRANCH  30  31
ENDBRANCH  29  30
ENDBRANCH  28  29
ENDBRANCH  27  28
ENDBRANCH  26  27
ENDBRANCH  25  26
ENDBRANCH  24  25
ENDBRANCH  23  24
ENDBRANCH  22  23
ENDBRANCH  21  22
ENDBRANCH  20  21
ENDBRANCH  19  20
ENDBRANCH   1  19
TORSDOF 32
BEGIN_RES ARG D 557
REMARK  4 active torsions:
REMARK  status: ('A' for Active; 'I' for Inactive)
REMARK    1  A    between atoms: CA   and  CB  
REMARK    2  A    between atoms: CB   and  CG  
REMARK    3  A    between atoms: CG   and  CD  
REMARK    4  A    between atoms: CD   and  NE  
REMARK       I    between atoms: NE   and  CZ  
REMARK       I    between atoms: CZ   and  NH1 
REMARK       I    between atoms: CZ   and  NH2 
ROOT
ATOM      1  CA  ARG D 557     -26.217   2.705 -17.014  1.00 35.49     0.159 C 
ENDROOT
BRANCH   1   2
ATOM      2  CB  ARG D 557     -26.789   1.319 -17.183  1.00 35.49     0.034 C 
BRANCH   2   3
ATOM      3  CG  ARG D 557     -28.237   1.224 -17.406  1.00 35.49     0.027 C 
BRANCH   3   4
ATOM      4  CD  ARG D 557     -28.897   0.310 -16.446  1.00 35.49     0.116 C 
BRANCH   4   5
ATOM      5  NE  ARG D 557     -28.039  -0.778 -16.056  1.00 35.49    -0.212 N 
ATOM      6  CZ  ARG D 557     -28.093  -2.004 -16.524  1.00 35.49     0.666 C 
ATOM      7  NH1 ARG D 557     -28.982  -2.381 -17.425  1.00 35.49    -0.235 N 
ATOM      8  NH2 ARG D 557     -27.222  -2.858 -16.072  1.00 35.49    -0.235 N 
ATOM      9  HH  ARG D 557     -29.564  -1.835 -17.738  1.00 35.49     0.174 HD
ATOM     10  HH  ARG D 557     -28.968  -3.194 -17.696  1.00 35.49     0.174 HD
ATOM     11  HH  ARG D 557     -26.655  -2.585 -15.497  1.00 35.49     0.174 HD
ATOM     12  HH  ARG D 557     -27.222  -3.658 -16.354  1.00 35.49     0.174 HD
ATOM     13  HE  ARG D 557     -27.484  -0.642 -15.426  1.00 35.49     0.178 HD
ENDBRANCH   4   5
ENDBRANCH   3   4
ENDBRANCH   2   3
ENDBRANCH   1   2
END_RES ARG D 557
BEGIN_RES GLU D 570
REMARK  3 active torsions:
REMARK  status: ('A' for Active; 'I' for Inactive)
REMARK    5  A    between atoms: CA   and  CB  
REMARK    6  A    between atoms: CB   and  CG  
REMARK    7  A    between atoms: CG   and  CD  
ROOT
ATOM     14  CA  GLU D 570     -18.033  -6.348 -13.375  1.00 32.92     0.160 C 
ENDROOT
BRANCH  14  15
ATOM     15  CB  GLU D 570     -19.500  -6.345 -13.794  1.00 32.92     0.043 C 
BRANCH  15  16
ATOM     16  CG  GLU D 570     -19.808  -6.003 -15.207  1.00 32.92     0.100 C 
BRANCH  16  17
ATOM     17  CD  GLU D 570     -20.736  -6.998 -15.865  1.00 32.92     0.185 C 
ATOM     18  OE1 GLU D 570     -20.794  -8.159 -15.417  1.00 32.92    -0.647 OA
ATOM     19  OE2 GLU D 570     -21.399  -6.616 -16.849  1.00 32.92    -0.647 OA
ENDBRANCH  16  17
ENDBRANCH  15  16
ENDBRANCH  14  15
END_RES GLU D 570
ENDMDL
MODEL 2
REMARK VINA RESULT:      -6.3      1.123      2.046
REMARK  32 active torsions:
REMARK  status: ('A' for Active; 'I' for Inactive)
REMARK    1  A    between atoms: C_2  and  C_3 
REMARK    2  A    between atoms: C_3  and  C_4 
REMARK    3  A    between atoms: C_4  and  C_5 
REMARK    4  A    between atoms: C_5  and  C_6 
REMARK    5  A    between atoms: C_6  and  C_7 
REMARK    6  A    between atoms: C_7  and  C_8 
REMARK    7  A    between atoms: C_8  and  C_9 
REMARK    8  A    between atoms: C_9  and  C_10 
REMARK    9  A    between atoms: C_10  and  C_11 
REMARK   10  A    between atoms: C_11  and  C_12 
REMARK   11  A    between atoms: C_12  and  O_13 
REMARK   12  A    between atoms: O_13  and  C_14 
REMARK   13  A    between atoms: C_14  and  C_15 
REMARK   14  A    between atoms: C_15  and  O_16 
REMARK   15  A    between atoms: O_16  and  C_17 
REMARK   16  A    between atoms: C_17  and  C_18 
REMARK   17  A    between atoms: C_18  and  O_19 
REMARK   18  A    between atoms: O_19  and  C_20 
REMARK   19  A    between atoms: C_20  and  C_21 
REMARK   20  A    between atoms: C_21  and  O_22 
REMARK   21  A    between atoms: O_22  and  C_23 
REMARK   22  A    between atoms: C_23  and  C_24 
REMARK   23  A    between atoms: C_24  and  O_25 
REMARK   24  A    between atoms: O_25  and  C_26 
REMARK   25  A    between atoms: C_26  and  C_27 
REMARK   26  A    between atoms: C_27  and  O_28 
REMARK   27  A    between atoms: O_28  and  C_29 
REMARK   28  A    between atoms: C_29  and  C_30 
REMARK   29  A    between atoms: C_30  and  O_31 
REMARK   30  A    between atoms: O_31  and  C_32 
REMARK   31  A    between atoms: C_32  and  C_33 
REMARK   32  A    between atoms: C_33  and  O_34 
ROOT
HETATM    1  C   UNL     1     -28.345  -6.542 -16.759  1.00  0.00     0.193 C 
ENDROOT
BRANCH   1   2
HETATM    2  C   UNL     1     -28.052  -7.147 -15.399  1.00  0.00     0.193 C 
BRANCH   2   3
HETATM    3  O   UNL     1     -26.666  -7.493 -15.350  1.00  0.00    -0.387 OA
BRANCH   3   4
HETATM    4  C   UNL     1     -25.895  -6.657 -16.202  1.00  0.00     0.193 C 
BRANCH   4   5
HETATM    5  C   UNL     1     -24.434  -6.829 -15.836  1.00  0.00     0.193 C 
BRANCH   5   6
HETATM    6  O   UNL     1     -24.285  -6.570 -14.448  1.00  0.00    -0.389 OA
BRANCH   6   7
HETATM    7  C   UNL     1     -23.302  -5.566 -14.228  1.00  0.00     0.167 C 
BRANCH   7   8
HETATM    8  C   UNL     1     -24.005  -4.237 -14.021  1.00  0.00     0.026 C 
BRANCH   8   9
HETATM    9  C   UNL     1     -22.979  -3.152 -13.734  1.00  0.00     0.002 C 
BRANCH   9  10
HETATM   10  C   UNL     1     -23.059  -2.698 -12.286  1.00  0.00     0.000 C 
BRANCH  10  11
HETATM   11  C   UNL     1     -24.057  -3.560 -11.526  1.00  0.00     0.000 C 
BRANCH  11  12
HETATM   12  C   UNL     1     -23.329  -4.482 -10.560  1.00  0.00     0.000 C 
BRANCH  12  13
HETATM   13  C   UNL     1     -21.825  -4.298 -10.689  1.00  0.00     0.000 C 
BRANCH  13  14
HETATM   14  C   UNL     1     -21.197  -4.115  -9.315  1.00  0.00     0.000 C 
BRANCH  14  15
HETATM   15  C   UNL     1     -22.251  -3.691  -8.303  1.00  0.00     0.000 C 
BRANCH  15  16
HETATM   16  C   UNL     1     -22.121  -4.511  -7.026  1.00  0.00    -0.000 C 
BRANCH  16  17
HETATM   17  C   UNL     1     -20.837  -5.333  -7.039  1.00  0.00    -0.005 C 
HETATM   18  C   UNL     1     -19.923  -4.922  -5.899  1.00  0.00     0.005 C 
ENDBRANCH  16  17
ENDBRANCH  15  16
ENDBRANCH  14  15
ENDBRANCH  13  14
ENDBRANCH  12  13
ENDBRANCH  11  12
ENDBRANCH  10  11
ENDBRANCH   9  10
ENDBRANCH   8   9
ENDBRANCH   7   8
ENDBRANCH   6   7
ENDBRANCH   5   6
ENDBRANCH   4   5
ENDBRANCH   3   4
ENDBRANCH   2   3
ENDBRANCH   1   2
BRANCH   1  19
HETATM   19  O   UNL     1     -29.612  -5.894 -16.692  1.00  0.00    -0.387 OA
BRANCH  19  20
HETATM   20  C   UNL     1     -30.609  -6.643 -17.386  1.00  0.00     0.193 C 
BRANCH  20  21
HETATM   21  C   UNL     1     -31.931  -5.903 -17.308  1.00  0.00     0.193 C 
BRANCH  21  22
HETATM   22  O   UNL     1     -31.741  -4.704 -16.563  1.00  0.00    -0.387 OA
BRANCH  22  23
HETATM   23  C   UNL     1     -32.923  -3.912 -16.563  1.00  0.00     0.193 C 
BRANCH  23  24
HETATM   24  C   UNL     1     -33.896  -4.496 -15.556  1.00  0.00     0.193 C 
BRANCH  24  25
HETATM   25  O   UNL     1     -34.254  -3.484 -14.617  1.00  0.00    -0.387 OA
BRANCH  25  26
HETATM   26  C   UNL     1     -34.145  -3.968 -13.286  1.00  0.00     0.193 C 
BRANCH  26  27
HETATM   27  C   UNL     1     -34.785  -2.954 -12.353  1.00  0.00     0.193 C 
BRANCH  27  28
HETATM   28  O   UNL     1     -34.213  -1.670 -12.599  1.00  0.00    -0.387 OA
BRANCH  28  29
HETATM   29  C   UNL     1     -35.194  -0.639 -12.500  1.00  0.00     0.193 C 
BRANCH  29  30
HETATM   30  C   UNL     1     -36.173  -0.776 -13.657  1.00  0.00     0.193 C 
BRANCH  30  31
HETATM   31  O   UNL     1     -36.450   0.514 -14.201  1.00  0.00    -0.387 OA
BRANCH  31  32
HETATM   32  C   UNL     1     -35.808   0.694 -15.465  1.00  0.00     0.193 C 
BRANCH  32  33
HETATM   33  C   UNL     1     -35.725  -0.651 -16.161  1.00  0.00     0.190 C 
BRANCH  33  34
HETATM   34  O   UNL     1     -36.650  -0.698 -17.240  1.00  0.00    -0.399 OA
HETATM   35  H   UNL     1     -37.422  -1.208 -16.936  1.00  0.00     0.209 HD
ENDBRANCH  33  34
ENDBRANCH  32  33
ENDBRANCH  31  32
ENDBRANCH  30  31
ENDBRANCH  29  30
ENDBRANCH  28  29
ENDBRANCH  27  28
ENDBRANCH  26  27
ENDBRANCH  25  26
ENDBRANCH  24  25
ENDBRANCH  23  24
ENDBRANCH  22  23
ENDBRANCH  21  22
ENDBRANCH  20  21
ENDBRANCH  19  20
ENDBRANCH   1  19
TORSDOF 32
BEGIN_RES ARG D 557
REMARK  4 active torsions:
REMARK  status: ('A' for Active; 'I' for Inactive)
REMARK    1  A    between atoms: CA   and  CB  
REMARK    2  A    between atoms: CB   and  CG  
REMARK    3  A    between atoms: CG   and  CD  
REMARK    4  A    between atoms: CD   and  NE  
REMARK       I    between atoms: NE   and  CZ  
REMARK       I    between atoms: CZ   and  NH1 
REMARK       I    between atoms: CZ   and  NH2 
ROOT
ATOM      1  CA  ARG D 557     -26.217   2.705 -17.014  1.00 35.49     0.159 C 
ENDROOT
BRANCH   1   2
ATOM      2  CB  ARG D 557     -26.789   1.319 -17.183  1.00 35.49     0.034 C 
BRANCH   2   3
ATOM      3  CG  ARG D 557     -28.231   1.167 -16.953  1.00 35.49     0.027 C 
BRANCH   3   4
ATOM      4  CD  ARG D 557     -28.733  -0.159 -17.379  1.00 35.49     0.116 C 
BRANCH   4   5
ATOM      5  NE  ARG D 557     -27.994  -1.238 -16.778  1.00 35.49    -0.212 N 
ATOM      6  CZ  ARG D 557     -28.298  -2.515 -16.856  1.00 35.49     0.666 C 
ATOM      7  NH1 ARG D 557     -29.360  -2.952 -17.506  1.00 35.49    -0.235 N 
ATOM      8  NH2 ARG D 557     -27.501  -3.358 -16.267  1.00 35.49    -0.235 N 
ATOM      9  HH  ARG D 557     -29.897  -2.415 -17.903  1.00 35.49     0.174 HD
ATOM     10  HH  ARG D 557     -29.507  -3.796 -17.525  1.00 35.49     0.174 HD
ATOM     11  HH  ARG D 557     -26.819  -3.048 -15.861  1.00 35.49     0.174 HD
ATOM     12  HH  ARG D 557     -27.663  -4.190 -16.298  1.00 35.49     0.174 HD
ATOM     13  HE  ARG D 557     -27.334  -1.041 -16.279  1.00 35.49     0.178 HD
ENDBRANCH   4   5
ENDBRANCH   3   4
ENDBRANCH   2   3
ENDBRANCH   1   2
END_RES ARG D 557
BEGIN_RES GLU D 570
REMARK  3 active torsions:
REMARK  status: ('A' for Active; 'I' for Inactive)
REMARK    5  A    between atoms: CA   and  CB  
REMARK    6  A    between atoms: CB   and  CG  
REMARK    7  A    between atoms: CG   and  CD  
ROOT
ATOM     14  CA  GLU D 570     -18.033  -6.348 -13.375  1.00 32.92     0.160 C 
ENDROOT
BRANCH  14  15
ATOM     15  CB  GLU D 570     -19.500  -6.345 -13.794  1.00 32.92     0.043 C 
BRANCH  15  16
ATOM     16  CG  GLU D 570     -20.084  -7.633 -14.250  1.00 32.92     0.100 C 
BRANCH  16  17
ATOM     17  CD  GLU D 570     -20.637  -7.564 -15.654  1.00 32.92     0.185 C 
ATOM     18  OE1 GLU D 570     -20.530  -6.502 -16.296  1.00 32.92    -0.647 OA
ATOM     19  OE2 GLU D 570     -21.199  -8.580 -16.112  1.00 32.92    -0.647 OA
ENDBRANCH  16  17
ENDBRANCH  15  16
ENDBRANCH  14  15
END_RES GLU D 570
ENDMDL
MODEL 3
REMARK VINA RESULT:      -6.1      3.083      7.347
REMARK  32 active torsions:
REMARK  status: ('A' for Active; 'I' for Inactive)
REMARK    1  A    between atoms: C_2  and  C_3 
REMARK    2  A    between atoms: C_3  and  C_4 
REMARK    3  A    between atoms: C_4  and  C_5 
REMARK    4  A    between atoms: C_5  and  C_6 
REMARK    5  A    between atoms: C_6  and  C_7 
REMARK    6  A    between atoms: C_7  and  C_8 
REMARK    7  A    between atoms: C_8  and  C_9 
REMARK    8  A    between atoms: C_9  and  C_10 
REMARK    9  A    between atoms: C_10  and  C_11 
REMARK   10  A    between atoms: C_11  and  C_12 
REMARK   11  A    between atoms: C_12  and  O_13 
REMARK   12  A    between atoms: O_13  and  C_14 
REMARK   13  A    between atoms: C_14  and  C_15 
REMARK   14  A    between atoms: C_15  and  O_16 
REMARK   15  A    between atoms: O_16  and  C_17 
REMARK   16  A    between atoms: C_17  and  C_18 
REMARK   17  A    between atoms: C_18  and  O_19 
REMARK   18  A    between atoms: O_19  and  C_20 
REMARK   19  A    between atoms: C_20  and  C_21 
REMARK   20  A    between atoms: C_21  and  O_22 
REMARK   21  A    between atoms: O_22  and  C_23 
REMARK   22  A    between atoms: C_23  and  C_24 
REMARK   23  A    between atoms: C_24  and  O_25 
REMARK   24  A    between atoms: O_25  and  C_26 
REMARK   25  A    between atoms: C_26  and  C_27 
REMARK   26  A    between atoms: C_27  and  O_28 
REMARK   27  A    between atoms: O_28  and  C_29 
REMARK   28  A    between atoms: C_29  and  C_30 
REMARK   29  A    between atoms: C_30  and  O_31 
REMARK   30  A    between atoms: O_31  and  C_32 
REMARK   31  A    between atoms: C_32  and  C_33 
REMARK   32  A    between atoms: C_33  and  O_34 
ROOT
HETATM    1  C   UNL     1     -23.646  -3.009 -11.515  1.00  0.00     0.193 C 
ENDROOT
BRANCH   1   2
HETATM    2  C   UNL     1     -24.506  -3.481 -10.357  1.00  0.00     0.193 C 
BRANCH   2   3
HETATM    3  O   UNL     1     -23.696  -4.280  -9.493  1.00  0.00    -0.387 OA
BRANCH   3   4
HETATM    4  C   UNL     1     -22.627  -3.524  -8.941  1.00  0.00     0.193 C 
BRANCH   4   5
HETATM    5  C   UNL     1     -21.949  -4.369  -7.880  1.00  0.00     0.193 C 
BRANCH   5   6
HETATM    6  O   UNL     1     -20.544  -4.249  -8.044  1.00  0.00    -0.389 OA
BRANCH   6   7
HETATM    7  C   UNL     1     -19.858  -5.072  -7.108  1.00  0.00     0.167 C 
BRANCH   7   8
HETATM    8  C   UNL     1     -20.688  -6.318  -6.860  1.00  0.00     0.026 C 
BRANCH   8   9
HETATM    9  C   UNL     1     -20.584  -6.723  -5.398  1.00  0.00     0.002 C 
BRANCH   9  10
HETATM   10  C   UNL     1     -19.711  -7.955  -5.235  1.00  0.00     0.000 C 
BRANCH  10  11
HETATM   11  C   UNL     1     -20.577  -9.171  -4.942  1.00  0.00     0.000 C 
BRANCH  11  12
HETATM   12  C   UNL     1     -21.766  -8.775  -4.079  1.00  0.00     0.000 C 
BRANCH  12  13
HETATM   13  C   UNL     1     -21.501  -9.127  -2.623  1.00  0.00     0.000 C 
BRANCH  13  14
HETATM   14  C   UNL     1     -21.031  -7.897  -1.862  1.00  0.00     0.000 C 
BRANCH  14  15
HETATM   15  C   UNL     1     -21.968  -7.602  -0.699  1.00  0.00     0.000 C 
BRANCH  15  16
HETATM   16  C   UNL     1     -22.497  -8.899  -0.102  1.00  0.00    -0.000 C 
BRANCH  16  17
HETATM   17  C   UNL     1     -21.409  -9.614   0.691  1.00  0.00    -0.005 C 
HETATM   18  C   UNL     1     -20.816  -8.693   1.742  1.00  0.00     0.005 C 
ENDBRANCH  16  17
ENDBRANCH  15  16
ENDBRANCH  14  15
ENDBRANCH  13  14
ENDBRANCH  12  13
ENDBRANCH  11  12
ENDBRANCH  10  11
ENDBRANCH   9  10
ENDBRANCH   8   9
ENDBRANCH   7   8
ENDBRANCH   6   7
ENDBRANCH   5   6
ENDBRANCH   4   5
ENDBRANCH   3   4
ENDBRANCH   2   3
ENDBRANCH   1   2
BRANCH   1  19
HETATM   19  O   UNL     1     -24.311  -3.352 -12.728  1.00  0.00    -0.387 OA
BRANCH  19  20
HETATM   20  C   UNL     1     -23.884  -4.629 -13.203  1.00  0.00     0.193 C 
BRANCH  20  21
HETATM   21  C   UNL     1     -22.766  -4.435 -14.210  1.00  0.00     0.193 C 
BRANCH  21  22
HETATM   22  O   UNL     1     -23.112  -5.111 -15.415  1.00  0.00    -0.387 OA
BRANCH  22  23
HETATM   23  C   UNL     1     -23.685  -6.383 -15.138  1.00  0.00     0.193 C 
BRANCH  23  24
HETATM   24  C   UNL     1     -24.043  -7.049 -16.453  1.00  0.00     0.193 C 
BRANCH  24  25
HETATM   25  O   UNL     1     -25.368  -6.667 -16.820  1.00  0.00    -0.387 OA
BRANCH  25  26
HETATM   26  C   UNL     1     -26.260  -6.830 -15.727  1.00  0.00     0.193 C 
BRANCH  26  27
HETATM   27  C   UNL     1     -27.652  -6.422 -16.179  1.00  0.00     0.193 C 
BRANCH  27  28
HETATM   28  O   UNL     1     -27.591  -5.981 -17.535  1.00  0.00    -0.387 OA
BRANCH  28  29
HETATM   29  C   UNL     1     -28.855  -6.117 -18.182  1.00  0.00     0.193 C 
BRANCH  29  30
HETATM   30  C   UNL     1     -29.863  -6.673 -17.186  1.00  0.00     0.193 C 
BRANCH  30  31
HETATM   31  O   UNL     1     -31.129  -6.047 -17.391  1.00  0.00    -0.387 OA
BRANCH  31  32
HETATM   32  C   UNL     1     -31.270  -4.882 -16.575  1.00  0.00     0.193 C 
BRANCH  32  33
HETATM   33  C   UNL     1     -31.794  -3.749 -17.436  1.00  0.00     0.190 C 
BRANCH  33  34
HETATM   34  O   UNL     1     -30.759  -2.805 -17.681  1.00  0.00    -0.399 OA
HETATM   35  H   UNL     1     -30.105  -2.903 -16.966  1.00  0.00     0.209 HD
ENDBRANCH  33  34
ENDBRANCH  32  33
ENDBRANCH  31  32
ENDBRANCH  30  31
ENDBRANCH  29  30
ENDBRANCH  28  29
ENDBRANCH  27  28
ENDBRANCH  26  27
ENDBRANCH  25  26
ENDBRANCH  24  25
ENDBRANCH  23  24
ENDBRANCH  22  23
ENDBRANCH  21  22
ENDBRANCH  20  21
ENDBRANCH  19  20
ENDBRANCH   1  19
TORSDOF 32
BEGIN_RES ARG D 557
REMARK  4 active torsions:
REMARK  status: ('A' for Active; 'I' for Inactive)
REMARK    1  A    between atoms: CA   and  CB  
REMARK    2  A    between atoms: CB   and  CG  
REMARK    3  A    between atoms: CG   and  CD  
REMARK    4  A    between atoms: CD   and  NE  
REMARK       I    between atoms: NE   and  CZ  
REMARK       I    between atoms: CZ   and  NH1 
REMARK       I    between atoms: CZ   and  NH2 
ROOT
ATOM      1  CA  ARG D 557     -26.217   2.705 -17.014  1.00 35.49     0.159 C 
ENDROOT
BRANCH   1   2
ATOM      2  CB  ARG D 557     -26.789   1.319 -17.183  1.00 35.49     0.034 C 
BRANCH   2   3
ATOM      3  CG  ARG D 557     -28.235   1.171 -16.976  1.00 35.49     0.027 C 
BRANCH   3   4
ATOM      4  CD  ARG D 557     -28.608  -0.199 -16.556  1.00 35.49     0.116 C 
BRANCH   4   5
ATOM      5  NE  ARG D 557     -27.544  -0.856 -15.844  1.00 35.49    -0.212 N 
ATOM      6  CZ  ARG D 557     -27.251  -2.136 -15.910  1.00 35.49     0.666 C 
ATOM      7  NH1 ARG D 557     -27.938  -2.983 -16.654  1.00 35.49    -0.235 N 
ATOM      8  NH2 ARG D 557     -26.237  -2.556 -15.212  1.00 35.49    -0.235 N 
ATOM      9  HH  ARG D 557     -28.608  -2.727 -17.124  1.00 35.49     0.174 HD
ATOM     10  HH  ARG D 557     -27.699  -3.806 -16.660  1.00 35.49     0.174 HD
ATOM     11  HH  ARG D 557     -25.807  -1.985 -14.746  1.00 35.49     0.174 HD
ATOM     12  HH  ARG D 557     -26.015  -3.375 -15.232  1.00 35.49     0.174 HD
ATOM     13  HE  ARG D 557     -27.095  -0.399 -15.285  1.00 35.49     0.178 HD
ENDBRANCH   4   5
ENDBRANCH   3   4
ENDBRANCH   2   3
ENDBRANCH   1   2
END_RES ARG D 557
BEGIN_RES GLU D 570
REMARK  3 active torsions:
REMARK  status: ('A' for Active; 'I' for Inactive)
REMARK    5  A    between atoms: CA   and  CB  
REMARK    6  A    between atoms: CB   and  CG  
REMARK    7  A    between atoms: CG   and  CD  
ROOT
ATOM     14  CA  GLU D 570     -18.033  -6.348 -13.375  1.00 32.92     0.160 C 
ENDROOT
BRANCH  14  15
ATOM     15  CB  GLU D 570     -19.500  -6.345 -13.794  1.00 32.92     0.043 C 
BRANCH  15  16
ATOM     16  CG  GLU D 570     -20.084  -7.632 -14.253  1.00 32.92     0.100 C 
BRANCH  16  17
ATOM     17  CD  GLU D 570     -20.454  -7.622 -15.718  1.00 32.92     0.185 C 
ATOM     18  OE1 GLU D 570     -20.378  -6.554 -16.354  1.00 32.92    -0.647 OA
ATOM     19  OE2 GLU D 570     -20.839  -8.691 -16.230  1.00 32.92    -0.647 OA
ENDBRANCH  16  17
ENDBRANCH  15  16
ENDBRANCH  14  15
END_RES GLU D 570
ENDMDL
MODEL 4
REMARK VINA RESULT:      -5.9      4.297      9.547
REMARK  32 active torsions:
REMARK  status: ('A' for Active; 'I' for Inactive)
REMARK    1  A    between atoms: C_2  and  C_3 
REMARK    2  A    between atoms: C_3  and  C_4 
REMARK    3  A    between atoms: C_4  and  C_5 
REMARK    4  A    between atoms: C_5  and  C_6 
REMARK    5  A    between atoms: C_6  and  C_7 
REMARK    6  A    between atoms: C_7  and  C_8 
REMARK    7  A    between atoms: C_8  and  C_9 
REMARK    8  A    between atoms: C_9  and  C_10 
REMARK    9  A    between atoms: C_10  and  C_11 
REMARK   10  A    between atoms: C_11  and  C_12 
REMARK   11  A    between atoms: C_12  and  O_13 
REMARK   12  A    between atoms: O_13  and  C_14 
REMARK   13  A    between atoms: C_14  and  C_15 
REMARK   14  A    between atoms: C_15  and  O_16 
REMARK   15  A    between atoms: O_16  and  C_17 
REMARK   16  A    between atoms: C_17  and  C_18 
REMARK   17  A    between atoms: C_18  and  O_19 
REMARK   18  A    between atoms: O_19  and  C_20 
REMARK   19  A    between atoms: C_20  and  C_21 
REMARK   20  A    between atoms: C_21  and  O_22 
REMARK   21  A    between atoms: O_22  and  C_23 
REMARK   22  A    between atoms: C_23  and  C_24 
REMARK   23  A    between atoms: C_24  and  O_25 
REMARK   24  A    between atoms: O_25  and  C_26 
REMARK   25  A    between atoms: C_26  and  C_27 
REMARK   26  A    between atoms: C_27  and  O_28 
REMARK   27  A    between atoms: O_28  and  C_29 
REMARK   28  A    between atoms: C_29  and  C_30 
REMARK   29  A    between atoms: C_30  and  O_31 
REMARK   30  A    between atoms: O_31  and  C_32 
REMARK   31  A    between atoms: C_32  and  C_33 
REMARK   32  A    between atoms: C_33  and  O_34 
ROOT
HETATM    1  C   UNL     1     -20.617  -4.443  -8.975  1.00  0.00     0.193 C 
ENDROOT
BRANCH   1   2
HETATM    2  C   UNL     1     -19.565  -4.219  -7.905  1.00  0.00     0.193 C 
BRANCH   2   3
HETATM    3  O   UNL     1     -20.059  -4.748  -6.673  1.00  0.00    -0.387 OA
BRANCH   3   4
HETATM    4  C   UNL     1     -21.150  -5.631  -6.889  1.00  0.00     0.193 C 
BRANCH   4   5
HETATM    5  C   UNL     1     -21.207  -6.606  -5.729  1.00  0.00     0.193 C 
BRANCH   5   6
HETATM    6  O   UNL     1     -21.955  -6.011  -4.680  1.00  0.00    -0.389 OA
BRANCH   6   7
HETATM    7  C   UNL     1     -22.068  -6.902  -3.577  1.00  0.00     0.167 C 
BRANCH   7   8
HETATM    8  C   UNL     1     -21.606  -6.182  -2.324  1.00  0.00     0.026 C 
BRANCH   8   9
HETATM    9  C   UNL     1     -21.450  -7.177  -1.186  1.00  0.00     0.002 C 
BRANCH   9  10
HETATM   10  C   UNL     1     -22.764  -7.373  -0.450  1.00  0.00     0.000 C 
BRANCH  10  11
HETATM   11  C   UNL     1     -22.635  -8.513   0.550  1.00  0.00     0.000 C 
BRANCH  11  12
HETATM   12  C   UNL     1     -21.226  -8.556   1.121  1.00  0.00     0.000 C 
BRANCH  12  13
HETATM   13  C   UNL     1     -20.715  -9.988   1.156  1.00  0.00     0.000 C 
BRANCH  13  14
HETATM   14  C   UNL     1     -21.124 -10.724  -0.111  1.00  0.00     0.000 C 
BRANCH  14  15
HETATM   15  C   UNL     1     -20.084 -11.776  -0.472  1.00  0.00     0.000 C 
BRANCH  15  16
HETATM   16  C   UNL     1     -19.155 -11.251  -1.560  1.00  0.00    -0.000 C 
BRANCH  16  17
HETATM   17  C   UNL     1     -19.607  -9.878  -2.042  1.00  0.00    -0.005 C 
HETATM   18  C   UNL     1     -18.651  -9.335  -3.089  1.00  0.00     0.005 C 
ENDBRANCH  16  17
ENDBRANCH  15  16
ENDBRANCH  14  15
ENDBRANCH  13  14
ENDBRANCH  12  13
ENDBRANCH  11  12
ENDBRANCH  10  11
ENDBRANCH   9  10
ENDBRANCH   8   9
ENDBRANCH   7   8
ENDBRANCH   6   7
ENDBRANCH   5   6
ENDBRANCH   4   5
ENDBRANCH   3   4
ENDBRANCH   2   3
ENDBRANCH   1   2
BRANCH   1  19
HETATM   19  O   UNL     1     -19.948  -4.662 -10.215  1.00  0.00    -0.387 OA
BRANCH  19  20
HETATM   20  C   UNL     1     -20.630  -4.012 -11.287  1.00  0.00     0.193 C 
BRANCH  20  21
HETATM   21  C   UNL     1     -21.880  -3.342 -10.746  1.00  0.00     0.193 C 
BRANCH  21  22
HETATM   22  O   UNL     1     -22.477  -2.577 -11.789  1.00  0.00    -0.387 OA
BRANCH  22  23
HETATM   23  C   UNL     1     -23.854  -2.903 -11.934  1.00  0.00     0.193 C 
BRANCH  23  24
HETATM   24  C   UNL     1     -23.972  -4.096 -12.864  1.00  0.00     0.193 C 
BRANCH  24  25
HETATM   25  O   UNL     1     -23.201  -3.847 -14.037  1.00  0.00    -0.387 OA
BRANCH  25  26
HETATM   26  C   UNL     1     -23.016  -5.042 -14.783  1.00  0.00     0.193 C 
BRANCH  26  27
HETATM   27  C   UNL     1     -24.275  -5.883 -14.662  1.00  0.00     0.193 C 
BRANCH  27  28
HETATM   28  O   UNL     1     -25.177  -5.523 -15.707  1.00  0.00    -0.387 OA
BRANCH  28  29
HETATM   29  C   UNL     1     -25.974  -6.635 -16.110  1.00  0.00     0.193 C 
BRANCH  29  30
HETATM   30  C   UNL     1     -26.791  -6.241 -17.332  1.00  0.00     0.193 C 
BRANCH  30  31
HETATM   31  O   UNL     1     -28.178  -6.442 -17.063  1.00  0.00    -0.387 OA
BRANCH  31  32
HETATM   32  C   UNL     1     -28.955  -6.371 -18.259  1.00  0.00     0.193 C 
BRANCH  32  33
HETATM   33  C   UNL     1     -29.982  -7.487 -18.235  1.00  0.00     0.190 C 
BRANCH  33  34
HETATM   34  O   UNL     1     -29.478  -8.628 -18.918  1.00  0.00    -0.399 OA
HETATM   35  H   UNL     1     -29.104  -9.224 -18.246  1.00  0.00     0.209 HD
ENDBRANCH  33  34
ENDBRANCH  32  33
ENDBRANCH  31  32
ENDBRANCH  30  31
ENDBRANCH  29  30
ENDBRANCH  28  29
ENDBRANCH  27  28
ENDBRANCH  26  27
ENDBRANCH  25  26
ENDBRANCH  24  25
ENDBRANCH  23  24
ENDBRANCH  22  23
ENDBRANCH  21  22
ENDBRANCH  20  21
ENDBRANCH  19  20
ENDBRANCH   1  19
TORSDOF 32
BEGIN_RES ARG D 557
REMARK  4 active torsions:
REMARK  status: ('A' for Active; 'I' for Inactive)
REMARK    1  A    between atoms: CA   and  CB  
REMARK    2  A    between atoms: CB   and  CG  
REMARK    3  A    between atoms: CG   and  CD  
REMARK    4  A    between atoms: CD   and  NE  
REMARK       I    between atoms: NE   and  CZ  
REMARK       I    between atoms: CZ   and  NH1 
REMARK       I    between atoms: CZ   and  NH2 
ROOT
ATOM      1  CA  ARG D 557     -26.217   2.705 -17.014  1.00 35.49     0.159 C 
ENDROOT
BRANCH   1   2
ATOM      2  CB  ARG D 557     -26.789   1.319 -17.183  1.00 35.49     0.034 C 
BRANCH   2   3
ATOM      3  CG  ARG D 557     -28.228   1.164 -16.938  1.00 35.49     0.027 C 
BRANCH   3   4
ATOM      4  CD  ARG D 557     -28.627  -0.256 -16.802  1.00 35.49     0.116 C 
BRANCH   4   5
ATOM      5  NE  ARG D 557     -27.638  -1.033 -16.103  1.00 35.49    -0.212 N 
ATOM      6  CZ  ARG D 557     -27.505  -2.339 -16.163  1.00 35.49     0.666 C 
ATOM      7  NH1 ARG D 557     -28.305  -3.101 -16.885  1.00 35.49    -0.235 N 
ATOM      8  NH2 ARG D 557     -26.537  -2.876 -15.478  1.00 35.49    -0.235 N 
ATOM      9  HH  ARG D 557     -28.947  -2.769 -17.345  1.00 35.49     0.174 HD
ATOM     10  HH  ARG D 557     -28.169  -3.947 -16.888  1.00 35.49     0.174 HD
ATOM     11  HH  ARG D 557     -26.032  -2.358 -15.026  1.00 35.49     0.174 HD
ATOM     12  HH  ARG D 557     -26.417  -3.715 -15.495  1.00 35.49     0.174 HD
ATOM     13  HE  ARG D 557     -27.126  -0.630 -15.557  1.00 35.49     0.178 HD
ENDBRANCH   4   5
ENDBRANCH   3   4
ENDBRANCH   2   3
ENDBRANCH   1   2
END_RES ARG D 557
BEGIN_RES GLU D 570
REMARK  3 active torsions:
REMARK  status: ('A' for Active; 'I' for Inactive)
REMARK    5  A    between atoms: CA   and  CB  
REMARK    6  A    between atoms: CB   and  CG  
REMARK    7  A    between atoms: CG   and  CD  
ROOT
ATOM     14  CA  GLU D 570     -18.033  -6.348 -13.375  1.00 32.92     0.160 C 
ENDROOT
BRANCH  14  15
ATOM     15  CB  GLU D 570     -19.500  -6.345 -13.794  1.00 32.92     0.043 C 
BRANCH  15  16
ATOM     16  CG  GLU D 570     -20.075  -7.625 -14.284  1.00 32.92     0.100 C 
BRANCH  16  17
ATOM     17  CD  GLU D 570     -20.486  -7.568 -15.737  1.00 32.92     0.185 C 
ATOM     18  OE1 GLU D 570     -20.954  -8.590 -16.274  1.00 32.92    -0.647 OA
ATOM     19  OE2 GLU D 570     -20.321  -6.494 -16.350  1.00 32.92    -0.647 OA
ENDBRANCH  16  17
ENDBRANCH  15  16
ENDBRANCH  14  15
END_RES GLU D 570
ENDMDL
MODEL 5
REMARK VINA RESULT:      -5.8      4.113      8.940
REMARK  32 active torsions:
REMARK  status: ('A' for Active; 'I' for Inactive)
REMARK    1  A    between atoms: C_2  and  C_3 
REMARK    2  A    between atoms: C_3  and  C_4 
REMARK    3  A    between atoms: C_4  and  C_5 
REMARK    4  A    between atoms: C_5  and  C_6 
REMARK    5  A    between atoms: C_6  and  C_7 
REMARK    6  A    between atoms: C_7  and  C_8 
REMARK    7  A    between atoms: C_8  and  C_9 
REMARK    8  A    between atoms: C_9  and  C_10 
REMARK    9  A    between atoms: C_10  and  C_11 
REMARK   10  A    between atoms: C_11  and  C_12 
REMARK   11  A    between atoms: C_12  and  O_13 
REMARK   12  A    between atoms: O_13  and  C_14 
REMARK   13  A    between atoms: C_14  and  C_15 
REMARK   14  A    between atoms: C_15  and  O_16 
REMARK   15  A    between atoms: O_16  and  C_17 
REMARK   16  A    between atoms: C_17  and  C_18 
REMARK   17  A    between atoms: C_18  and  O_19 
REMARK   18  A    between atoms: O_19  and  C_20 
REMARK   19  A    between atoms: C_20  and  C_21 
REMARK   20  A    between atoms: C_21  and  O_22 
REMARK   21  A    between atoms: O_22  and  C_23 
REMARK   22  A    between atoms: C_23  and  C_24 
REMARK   23  A    between atoms: C_24  and  O_25 
REMARK   24  A    between atoms: O_25  and  C_26 
REMARK   25  A    between atoms: C_26  and  C_27 
REMARK   26  A    between atoms: C_27  and  O_28 
REMARK   27  A    between atoms: O_28  and  C_29 
REMARK   28  A    between atoms: C_29  and  C_30 
REMARK   29  A    between atoms: C_30  and  O_31 
REMARK   30  A    between atoms: O_31  and  C_32 
REMARK   31  A    between atoms: C_32  and  C_33 
REMARK   32  A    between atoms: C_33  and  O_34 
ROOT
HETATM    1  C   UNL     1     -20.713  -3.734 -10.735  1.00  0.00     0.193 C 
ENDROOT
BRANCH   1   2
HETATM    2  C   UNL     1     -21.615  -3.957  -9.535  1.00  0.00     0.193 C 
BRANCH   2   3
HETATM    3  O   UNL     1     -20.840  -3.766  -8.350  1.00  0.00    -0.387 OA
BRANCH   3   4
HETATM    4  C   UNL     1     -21.497  -4.303  -7.211  1.00  0.00     0.193 C 
BRANCH   4   5
HETATM    5  C   UNL     1     -21.172  -5.781  -7.130  1.00  0.00     0.193 C 
BRANCH   5   6
HETATM    6  O   UNL     1     -20.835  -6.094  -5.787  1.00  0.00    -0.389 OA
BRANCH   6   7
HETATM    7  C   UNL     1     -22.006  -6.351  -5.023  1.00  0.00     0.167 C 
BRANCH   7   8
HETATM    8  C   UNL     1     -21.704  -7.464  -4.036  1.00  0.00     0.026 C 
BRANCH   8   9
HETATM    9  C   UNL     1     -21.073  -6.882  -2.781  1.00  0.00     0.002 C 
BRANCH   9  10
HETATM   10  C   UNL     1     -22.129  -6.272  -1.874  1.00  0.00     0.000 C 
BRANCH  10  11
HETATM   11  C   UNL     1     -22.493  -7.252  -0.768  1.00  0.00     0.000 C 
BRANCH  11  12
HETATM   12  C   UNL     1     -21.268  -8.049  -0.346  1.00  0.00     0.000 C 
BRANCH  12  13
HETATM   13  C   UNL     1     -21.573  -9.539  -0.372  1.00  0.00     0.000 C 
BRANCH  13  14
HETATM   14  C   UNL     1     -22.998  -9.776  -0.848  1.00  0.00     0.000 C 
BRANCH  14  15
HETATM   15  C   UNL     1     -23.695 -10.790   0.048  1.00  0.00     0.000 C 
BRANCH  15  16
HETATM   16  C   UNL     1     -23.809 -12.134  -0.660  1.00  0.00    -0.000 C 
BRANCH  16  17
HETATM   17  C   UNL     1     -23.462 -13.277   0.286  1.00  0.00    -0.005 C 
HETATM   18  C   UNL     1     -22.210 -12.955   1.081  1.00  0.00     0.005 C 
ENDBRANCH  16  17
ENDBRANCH  15  16
ENDBRANCH  14  15
ENDBRANCH  13  14
ENDBRANCH  12  13
ENDBRANCH  11  12
ENDBRANCH  10  11
ENDBRANCH   9  10
ENDBRANCH   8   9
ENDBRANCH   7   8
ENDBRANCH   6   7
ENDBRANCH   5   6
ENDBRANCH   4   5
ENDBRANCH   3   4
ENDBRANCH   2   3
ENDBRANCH   1   2
BRANCH   1  19
HETATM   19  O   UNL     1     -21.518  -3.262 -11.812  1.00  0.00    -0.387 OA
BRANCH  19  20
HETATM   20  C   UNL     1     -22.900  -3.253 -11.454  1.00  0.00     0.193 C 
BRANCH  20  21
HETATM   21  C   UNL     1     -23.700  -3.941 -12.546  1.00  0.00     0.193 C 
BRANCH  21  22
HETATM   22  O   UNL     1     -22.831  -4.803 -13.275  1.00  0.00    -0.387 OA
BRANCH  22  23
HETATM   23  C   UNL     1     -23.492  -6.014 -13.623  1.00  0.00     0.193 C 
BRANCH  23  24
HETATM   24  C   UNL     1     -24.394  -5.748 -14.813  1.00  0.00     0.193 C 
BRANCH  24  25
HETATM   25  O   UNL     1     -25.052  -6.961 -15.176  1.00  0.00    -0.387 OA
BRANCH  25  26
HETATM   26  C   UNL     1     -26.062  -6.718 -16.143  1.00  0.00     0.193 C 
BRANCH  26  27
HETATM   27  C   UNL     1     -27.410  -7.036 -15.520  1.00  0.00     0.193 C 
BRANCH  27  28
HETATM   28  O   UNL     1     -28.367  -6.075 -15.965  1.00  0.00    -0.387 OA
BRANCH  28  29
HETATM   29  C   UNL     1     -29.297  -6.655 -16.878  1.00  0.00     0.193 C 
BRANCH  29  30
HETATM   30  C   UNL     1     -29.528  -5.688 -18.030  1.00  0.00     0.193 C 
BRANCH  30  31
HETATM   31  O   UNL     1     -28.314  -5.522 -18.762  1.00  0.00    -0.387 OA
BRANCH  31  32
HETATM   32  C   UNL     1     -27.921  -6.738 -19.400  1.00  0.00     0.193 C 
BRANCH  32  33
HETATM   33  C   UNL     1     -26.592  -6.512 -20.094  1.00  0.00     0.190 C 
BRANCH  33  34
HETATM   34  O   UNL     1     -26.019  -7.759 -20.468  1.00  0.00    -0.399 OA
HETATM   35  H   UNL     1     -25.939  -7.760 -21.438  1.00  0.00     0.209 HD
ENDBRANCH  33  34
ENDBRANCH  32  33
ENDBRANCH  31  32
ENDBRANCH  30  31
ENDBRANCH  29  30
ENDBRANCH  28  29
ENDBRANCH  27  28
ENDBRANCH  26  27
ENDBRANCH  25  26
ENDBRANCH  24  25
ENDBRANCH  23  24
ENDBRANCH  22  23
ENDBRANCH  21  22
ENDBRANCH  20  21
ENDBRANCH  19  20
ENDBRANCH   1  19
TORSDOF 32
BEGIN_RES ARG D 557
REMARK  4 active torsions:
REMARK  status: ('A' for Active; 'I' for Inactive)
REMARK    1  A    between atoms: CA   and  CB  
REMARK    2  A    between atoms: CB   and  CG  
REMARK    3  A    between atoms: CG   and  CD  
REMARK    4  A    between atoms: CD   and  NE  
REMARK       I    between atoms: NE   and  CZ  
REMARK       I    between atoms: CZ   and  NH1 
REMARK       I    between atoms: CZ   and  NH2 
ROOT
ATOM      1  CA  ARG D 557     -26.217   2.705 -17.014  1.00 35.49     0.159 C 
ENDROOT
BRANCH   1   2
ATOM      2  CB  ARG D 557     -26.789   1.319 -17.183  1.00 35.49     0.034 C 
BRANCH   2   3
ATOM      3  CG  ARG D 557     -28.224   1.228 -17.477  1.00 35.49     0.027 C 
BRANCH   3   4
ATOM      4  CD  ARG D 557     -28.918   0.251 -16.607  1.00 35.49     0.116 C 
BRANCH   4   5
ATOM      5  NE  ARG D 557     -28.064  -0.846 -16.235  1.00 35.49    -0.212 N 
ATOM      6  CZ  ARG D 557     -28.187  -2.089 -16.645  1.00 35.49     0.666 C 
ATOM      7  NH1 ARG D 557     -29.153  -2.474 -17.459  1.00 35.49    -0.235 N 
ATOM      8  NH2 ARG D 557     -27.308  -2.951 -16.224  1.00 35.49    -0.235 N 
ATOM      9  HH  ARG D 557     -29.741  -1.924 -17.751  1.00 35.49     0.174 HD
ATOM     10  HH  ARG D 557     -29.182  -3.298 -17.695  1.00 35.49     0.174 HD
ATOM     11  HH  ARG D 557     -26.691  -2.672 -15.705  1.00 35.49     0.174 HD
ATOM     12  HH  ARG D 557     -27.353  -3.761 -16.470  1.00 35.49     0.174 HD
ATOM     13  HE  ARG D 557     -27.458  -0.703 -15.656  1.00 35.49     0.178 HD
ENDBRANCH   4   5
ENDBRANCH   3   4
ENDBRANCH   2   3
ENDBRANCH   1   2
END_RES ARG D 557
BEGIN_RES GLU D 570
REMARK  3 active torsions:
REMARK  status: ('A' for Active; 'I' for Inactive)
REMARK    5  A    between atoms: CA   and  CB  
REMARK    6  A    between atoms: CB   and  CG  
REMARK    7  A    between atoms: CG   and  CD  
ROOT
ATOM     14  CA  GLU D 570     -18.033  -6.348 -13.375  1.00 32.92     0.160 C 
ENDROOT
BRANCH  14  15
ATOM     15  CB  GLU D 570     -19.500  -6.345 -13.794  1.00 32.92     0.043 C 
BRANCH  15  16
ATOM     16  CG  GLU D 570     -19.801  -6.121 -15.232  1.00 32.92     0.100 C 
BRANCH  16  17
ATOM     17  CD  GLU D 570     -20.717  -7.172 -15.813  1.00 32.92     0.185 C 
ATOM     18  OE1 GLU D 570     -21.494  -6.855 -16.734  1.00 32.92    -0.647 OA
ATOM     19  OE2 GLU D 570     -20.669  -8.321 -15.331  1.00 32.92    -0.647 OA
ENDBRANCH  16  17
ENDBRANCH  15  16
ENDBRANCH  14  15
END_RES GLU D 570
ENDMDL
MODEL 6
REMARK VINA RESULT:      -5.8      4.222      8.245
REMARK  32 active torsions:
REMARK  status: ('A' for Active; 'I' for Inactive)
REMARK    1  A    between atoms: C_2  and  C_3 
REMARK    2  A    between atoms: C_3  and  C_4 
REMARK    3  A    between atoms: C_4  and  C_5 
REMARK    4  A    between atoms: C_5  and  C_6 
REMARK    5  A    between atoms: C_6  and  C_7 
REMARK    6  A    between atoms: C_7  and  C_8 
REMARK    7  A    between atoms: C_8  and  C_9 
REMARK    8  A    between atoms: C_9  and  C_10 
REMARK    9  A    between atoms: C_10  and  C_11 
REMARK   10  A    between atoms: C_11  and  C_12 
REMARK   11  A    between atoms: C_12  and  O_13 
REMARK   12  A    between atoms: O_13  and  C_14 
REMARK   13  A    between atoms: C_14  and  C_15 
REMARK   14  A    between atoms: C_15  and  O_16 
REMARK   15  A    between atoms: O_16  and  C_17 
REMARK   16  A    between atoms: C_17  and  C_18 
REMARK   17  A    between atoms: C_18  and  O_19 
REMARK   18  A    between atoms: O_19  and  C_20 
REMARK   19  A    between atoms: C_20  and  C_21 
REMARK   20  A    between atoms: C_21  and  O_22 
REMARK   21  A    between atoms: O_22  and  C_23 
REMARK   22  A    between atoms: C_23  and  C_24 
REMARK   23  A    between atoms: C_24  and  O_25 
REMARK   24  A    between atoms: O_25  and  C_26 
REMARK   25  A    between atoms: C_26  and  C_27 
REMARK   26  A    between atoms: C_27  and  O_28 
REMARK   27  A    between atoms: O_28  and  C_29 
REMARK   28  A    between atoms: C_29  and  C_30 
REMARK   29  A    between atoms: C_30  and  O_31 
REMARK   30  A    between atoms: O_31  and  C_32 
REMARK   31  A    between atoms: C_32  and  C_33 
REMARK   32  A    between atoms: C_33  and  O_34 
ROOT
HETATM    1  C   UNL     1     -24.155  -3.134 -11.500  1.00  0.00     0.193 C 
ENDROOT
BRANCH   1   2
HETATM    2  C   UNL     1     -23.112  -3.608 -10.505  1.00  0.00     0.193 C 
BRANCH   2   3
HETATM    3  O   UNL     1     -21.826  -3.205 -10.978  1.00  0.00    -0.387 OA
BRANCH   3   4
HETATM    4  C   UNL     1     -20.791  -3.970 -10.378  1.00  0.00     0.193 C 
BRANCH   4   5
HETATM    5  C   UNL     1     -21.314  -4.533  -9.072  1.00  0.00     0.193 C 
BRANCH   5   6
HETATM    6  O   UNL     1     -20.886  -3.688  -8.015  1.00  0.00    -0.389 OA
BRANCH   6   7
HETATM    7  C   UNL     1     -21.447  -4.107  -6.778  1.00  0.00     0.167 C 
BRANCH   7   8
HETATM    8  C   UNL     1     -21.304  -5.613  -6.667  1.00  0.00     0.026 C 
BRANCH   8   9
HETATM    9  C   UNL     1     -20.665  -5.973  -5.335  1.00  0.00     0.002 C 
BRANCH   9  10
HETATM   10  C   UNL     1     -21.572  -6.883  -4.525  1.00  0.00     0.000 C 
BRANCH  10  11
HETATM   11  C   UNL     1     -21.819  -6.278  -3.150  1.00  0.00     0.000 C 
BRANCH  11  12
HETATM   12  C   UNL     1     -21.612  -7.328  -2.068  1.00  0.00     0.000 C 
BRANCH  12  13
HETATM   13  C   UNL     1     -22.240  -6.869  -0.761  1.00  0.00     0.000 C 
BRANCH  13  14
HETATM   14  C   UNL     1     -22.214  -7.996   0.260  1.00  0.00     0.000 C 
BRANCH  14  15
HETATM   15  C   UNL     1     -23.407  -8.919   0.062  1.00  0.00     0.000 C 
BRANCH  15  16
HETATM   16  C   UNL     1     -22.941 -10.360  -0.099  1.00  0.00    -0.000 C 
BRANCH  16  17
HETATM   17  C   UNL     1     -21.428 -10.425  -0.266  1.00  0.00    -0.005 C 
HETATM   18  C   UNL     1     -20.801 -11.266   0.831  1.00  0.00     0.005 C 
ENDBRANCH  16  17
ENDBRANCH  15  16
ENDBRANCH  14  15
ENDBRANCH  13  14
ENDBRANCH  12  13
ENDBRANCH  11  12
ENDBRANCH  10  11
ENDBRANCH   9  10
ENDBRANCH   8   9
ENDBRANCH   7   8
ENDBRANCH   6   7
ENDBRANCH   5   6
ENDBRANCH   4   5
ENDBRANCH   3   4
ENDBRANCH   2   3
ENDBRANCH   1   2
BRANCH   1  19
HETATM   19  O   UNL     1     -23.881  -3.750 -12.756  1.00  0.00    -0.387 OA
BRANCH  19  20
HETATM   20  C   UNL     1     -23.773  -5.166 -12.620  1.00  0.00     0.193 C 
BRANCH  20  21
HETATM   21  C   UNL     1     -23.042  -5.727 -13.826  1.00  0.00     0.193 C 
BRANCH  21  22
HETATM   22  O   UNL     1     -23.793  -5.425 -14.998  1.00  0.00    -0.387 OA
BRANCH  22  23
HETATM   23  C   UNL     1     -24.513  -6.567 -15.449  1.00  0.00     0.193 C 
BRANCH  23  24
HETATM   24  C   UNL     1     -25.942  -6.151 -15.743  1.00  0.00     0.193 C 
BRANCH  24  25
HETATM   25  O   UNL     1     -26.748  -7.322 -15.869  1.00  0.00    -0.387 OA
BRANCH  25  26
HETATM   26  C   UNL     1     -28.058  -7.089 -15.374  1.00  0.00     0.193 C 
BRANCH  26  27
HETATM   27  C   UNL     1     -28.839  -6.320 -16.426  1.00  0.00     0.193 C 
BRANCH  27  28
HETATM   28  O   UNL     1     -28.515  -6.836 -17.717  1.00  0.00    -0.387 OA
BRANCH  28  29
HETATM   29  C   UNL     1     -28.182  -5.788 -18.625  1.00  0.00     0.193 C 
BRANCH  29  30
HETATM   30  C   UNL     1     -27.352  -6.365 -19.763  1.00  0.00     0.193 C 
BRANCH  30  31
HETATM   31  O   UNL     1     -26.041  -6.671 -19.288  1.00  0.00    -0.387 OA
BRANCH  31  32
HETATM   32  C   UNL     1     -25.071  -6.556 -20.330  1.00  0.00     0.193 C 
BRANCH  32  33
HETATM   33  C   UNL     1     -24.505  -7.934 -20.617  1.00  0.00     0.190 C 
BRANCH  33  34
HETATM   34  O   UNL     1     -25.274  -8.576 -21.626  1.00  0.00    -0.399 OA
HETATM   35  H   UNL     1     -25.285  -9.527 -21.417  1.00  0.00     0.209 HD
ENDBRANCH  33  34
ENDBRANCH  32  33
ENDBRANCH  31  32
ENDBRANCH  30  31
ENDBRANCH  29  30
ENDBRANCH  28  29
ENDBRANCH  27  28
ENDBRANCH  26  27
ENDBRANCH  25  26
ENDBRANCH  24  25
ENDBRANCH  23  24
ENDBRANCH  22  23
ENDBRANCH  21  22
ENDBRANCH  20  21
ENDBRANCH  19  20
ENDBRANCH   1  19
TORSDOF 32
BEGIN_RES ARG D 557
REMARK  4 active torsions:
REMARK  status: ('A' for Active; 'I' for Inactive)
REMARK    1  A    between atoms: CA   and  CB  
REMARK    2  A    between atoms: CB   and  CG  
REMARK    3  A    between atoms: CG   and  CD  
REMARK    4  A    between atoms: CD   and  NE  
REMARK       I    between atoms: NE   and  CZ  
REMARK       I    between atoms: CZ   and  NH1 
REMARK       I    between atoms: CZ   and  NH2 
ROOT
ATOM      1  CA  ARG D 557     -26.217   2.705 -17.014  1.00 35.49     0.159 C 
ENDROOT
BRANCH   1   2
ATOM      2  CB  ARG D 557     -26.789   1.319 -17.183  1.00 35.49     0.034 C 
BRANCH   2   3
ATOM      3  CG  ARG D 557     -28.229   1.227 -17.456  1.00 35.49     0.027 C 
BRANCH   3   4
ATOM      4  CD  ARG D 557     -28.920   0.302 -16.529  1.00 35.49     0.116 C 
BRANCH   4   5
ATOM      5  NE  ARG D 557     -28.133  -0.868 -16.243  1.00 35.49    -0.212 N 
ATOM      6  CZ  ARG D 557     -28.360  -2.079 -16.702  1.00 35.49     0.666 C 
ATOM      7  NH1 ARG D 557     -29.382  -2.358 -17.490  1.00 35.49    -0.235 N 
ATOM      8  NH2 ARG D 557     -27.529  -3.018 -16.355  1.00 35.49    -0.235 N 
ATOM      9  HH  ARG D 557     -29.940  -1.755 -17.733  1.00 35.49     0.174 HD
ATOM     10  HH  ARG D 557     -29.478  -3.165 -17.761  1.00 35.49     0.174 HD
ATOM     11  HH  ARG D 557     -26.874  -2.807 -15.851  1.00 35.49     0.174 HD
ATOM     12  HH  ARG D 557     -27.641  -3.811 -16.635  1.00 35.49     0.174 HD
ATOM     13  HE  ARG D 557     -27.496  -0.794 -15.684  1.00 35.49     0.178 HD
ENDBRANCH   4   5
ENDBRANCH   3   4
ENDBRANCH   2   3
ENDBRANCH   1   2
END_RES ARG D 557
BEGIN_RES GLU D 570
REMARK  3 active torsions:
REMARK  status: ('A' for Active; 'I' for Inactive)
REMARK    5  A    between atoms: CA   and  CB  
REMARK    6  A    between atoms: CB   and  CG  
REMARK    7  A    between atoms: CG   and  CD  
ROOT
ATOM     14  CA  GLU D 570     -18.033  -6.348 -13.375  1.00 32.92     0.160 C 
ENDROOT
BRANCH  14  15
ATOM     15  CB  GLU D 570     -19.500  -6.345 -13.794  1.00 32.92     0.043 C 
BRANCH  15  16
ATOM     16  CG  GLU D 570     -19.799  -6.172 -15.239  1.00 32.92     0.100 C 
BRANCH  16  17
ATOM     17  CD  GLU D 570     -20.617  -7.306 -15.811  1.00 32.92     0.185 C 
ATOM     18  OE1 GLU D 570     -20.609  -8.410 -15.234  1.00 32.92    -0.647 OA
ATOM     19  OE2 GLU D 570     -21.261  -7.093 -16.858  1.00 32.92    -0.647 OA
ENDBRANCH  16  17
ENDBRANCH  15  16
ENDBRANCH  14  15
END_RES GLU D 570
ENDMDL
MODEL 7
REMARK VINA RESULT:      -5.8      4.297      9.247
REMARK  32 active torsions:
REMARK  status: ('A' for Active; 'I' for Inactive)
REMARK    1  A    between atoms: C_2  and  C_3 
REMARK    2  A    between atoms: C_3  and  C_4 
REMARK    3  A    between atoms: C_4  and  C_5 
REMARK    4  A    between atoms: C_5  and  C_6 
REMARK    5  A    between atoms: C_6  and  C_7 
REMARK    6  A    between atoms: C_7  and  C_8 
REMARK    7  A    between atoms: C_8  and  C_9 
REMARK    8  A    between atoms: C_9  and  C_10 
REMARK    9  A    between atoms: C_10  and  C_11 
REMARK   10  A    between atoms: C_11  and  C_12 
REMARK   11  A    between atoms: C_12  and  O_13 
REMARK   12  A    between atoms: O_13  and  C_14 
REMARK   13  A    between atoms: C_14  and  C_15 
REMARK   14  A    between atoms: C_15  and  O_16 
REMARK   15  A    between atoms: O_16  and  C_17 
REMARK   16  A    between atoms: C_17  and  C_18 
REMARK   17  A    between atoms: C_18  and  O_19 
REMARK   18  A    between atoms: O_19  and  C_20 
REMARK   19  A    between atoms: C_20  and  C_21 
REMARK   20  A    between atoms: C_21  and  O_22 
REMARK   21  A    between atoms: O_22  and  C_23 
REMARK   22  A    between atoms: C_23  and  C_24 
REMARK   23  A    between atoms: C_24  and  O_25 
REMARK   24  A    between atoms: O_25  and  C_26 
REMARK   25  A    between atoms: C_26  and  C_27 
REMARK   26  A    between atoms: C_27  and  O_28 
REMARK   27  A    between atoms: O_28  and  C_29 
REMARK   28  A    between atoms: C_29  and  C_30 
REMARK   29  A    between atoms: C_30  and  O_31 
REMARK   30  A    between atoms: O_31  and  C_32 
REMARK   31  A    between atoms: C_32  and  C_33 
REMARK   32  A    between atoms: C_33  and  O_34 
ROOT
HETATM    1  C   UNL     1     -21.820  -4.336  -8.096  1.00  0.00     0.193 C 
ENDROOT
BRANCH   1   2
HETATM    2  C   UNL     1     -20.541  -5.152  -8.137  1.00  0.00     0.193 C 
BRANCH   2   3
HETATM    3  O   UNL     1     -20.664  -6.226  -7.203  1.00  0.00    -0.387 OA
BRANCH   3   4
HETATM    4  C   UNL     1     -20.417  -5.787  -5.875  1.00  0.00     0.193 C 
BRANCH   4   5
HETATM    5  C   UNL     1     -21.321  -6.570  -4.942  1.00  0.00     0.193 C 
BRANCH   5   6
HETATM    6  O   UNL     1     -20.507  -7.336  -4.067  1.00  0.00    -0.389 OA
BRANCH   6   7
HETATM    7  C   UNL     1     -20.298  -8.641  -4.590  1.00  0.00     0.167 C 
BRANCH   7   8
HETATM    8  C   UNL     1     -20.664  -9.655  -3.522  1.00  0.00     0.026 C 
BRANCH   8   9
HETATM    9  C   UNL     1     -21.959 -10.356  -3.901  1.00  0.00     0.002 C 
BRANCH   9  10
HETATM   10  C   UNL     1     -21.750 -11.856  -4.022  1.00  0.00     0.000 C 
BRANCH  10  11
HETATM   11  C   UNL     1     -22.680 -12.589  -3.066  1.00  0.00     0.000 C 
BRANCH  11  12
HETATM   12  C   UNL     1     -23.522 -11.594  -2.282  1.00  0.00     0.000 C 
BRANCH  12  13
HETATM   13  C   UNL     1     -23.912 -12.179  -0.934  1.00  0.00     0.000 C 
BRANCH  13  14
HETATM   14  C   UNL     1     -23.436 -11.274   0.191  1.00  0.00     0.000 C 
BRANCH  14  15
HETATM   15  C   UNL     1     -22.935  -9.950  -0.368  1.00  0.00     0.000 C 
BRANCH  15  16
HETATM   16  C   UNL     1     -23.494  -8.787   0.441  1.00  0.00    -0.000 C 
BRANCH  16  17
HETATM   17  C   UNL     1     -22.515  -7.619   0.459  1.00  0.00    -0.005 C 
HETATM   18  C   UNL     1     -22.268  -7.101  -0.946  1.00  0.00     0.005 C 
ENDBRANCH  16  17
ENDBRANCH  15  16
ENDBRANCH  14  15
ENDBRANCH  13  14
ENDBRANCH  12  13
ENDBRANCH  11  12
ENDBRANCH  10  11
ENDBRANCH   9  10
ENDBRANCH   8   9
ENDBRANCH   7   8
ENDBRANCH   6   7
ENDBRANCH   5   6
ENDBRANCH   4   5
ENDBRANCH   3   4
ENDBRANCH   2   3
ENDBRANCH   1   2
BRANCH   1  19
HETATM   19  O   UNL     1     -21.975  -3.692  -9.358  1.00  0.00    -0.387 OA
BRANCH  19  20
HETATM   20  C   UNL     1     -22.976  -4.339 -10.144  1.00  0.00     0.193 C 
BRANCH  20  21
HETATM   21  C   UNL     1     -23.829  -3.285 -10.826  1.00  0.00     0.193 C 
BRANCH  21  22
HETATM   22  O   UNL     1     -23.396  -3.150 -12.177  1.00  0.00    -0.387 OA
BRANCH  22  23
HETATM   23  C   UNL     1     -22.932  -4.393 -12.689  1.00  0.00     0.193 C 
BRANCH  23  24
HETATM   24  C   UNL     1     -22.526  -4.198 -14.138  1.00  0.00     0.193 C 
BRANCH  24  25
HETATM   25  O   UNL     1     -23.552  -4.719 -14.980  1.00  0.00    -0.387 OA
BRANCH  25  26
HETATM   26  C   UNL     1     -23.677  -6.123 -14.812  1.00  0.00     0.193 C 
BRANCH  26  27
HETATM   27  C   UNL     1     -25.026  -6.554 -15.363  1.00  0.00     0.193 C 
BRANCH  27  28
HETATM   28  O   UNL     1     -25.750  -5.397 -15.780  1.00  0.00    -0.387 OA
BRANCH  28  29
HETATM   29  C   UNL     1     -27.107  -5.716 -16.082  1.00  0.00     0.193 C 
BRANCH  29  30
HETATM   30  C   UNL     1     -27.251  -5.890 -17.587  1.00  0.00     0.193 C 
BRANCH  30  31
HETATM   31  O   UNL     1     -28.587  -5.575 -17.976  1.00  0.00    -0.387 OA
BRANCH  31  32
HETATM   32  C   UNL     1     -28.919  -4.224 -17.650  1.00  0.00     0.193 C 
BRANCH  32  33
HETATM   33  C   UNL     1     -30.430  -4.091 -17.623  1.00  0.00     0.190 C 
BRANCH  33  34
HETATM   34  O   UNL     1     -30.797  -2.718 -17.580  1.00  0.00    -0.399 OA
HETATM   35  H   UNL     1     -30.024  -2.223 -17.256  1.00  0.00     0.209 HD
ENDBRANCH  33  34
ENDBRANCH  32  33
ENDBRANCH  31  32
ENDBRANCH  30  31
ENDBRANCH  29  30
ENDBRANCH  28  29
ENDBRANCH  27  28
ENDBRANCH  26  27
ENDBRANCH  25  26
ENDBRANCH  24  25
ENDBRANCH  23  24
ENDBRANCH  22  23
ENDBRANCH  21  22
ENDBRANCH  20  21
ENDBRANCH  19  20
ENDBRANCH   1  19
TORSDOF 32
BEGIN_RES ARG D 557
REMARK  4 active torsions:
REMARK  status: ('A' for Active; 'I' for Inactive)
REMARK    1  A    between atoms: CA   and  CB  
REMARK    2  A    between atoms: CB   and  CG  
REMARK    3  A    between atoms: CG   and  CD  
REMARK    4  A    between atoms: CD   and  NE  
REMARK       I    between atoms: NE   and  CZ  
REMARK       I    between atoms: CZ   and  NH1 
REMARK       I    between atoms: CZ   and  NH2 
ROOT
ATOM      1  CA  ARG D 557     -26.217   2.705 -17.014  1.00 35.49     0.159 C 
ENDROOT
BRANCH   1   2
ATOM      2  CB  ARG D 557     -26.789   1.319 -17.183  1.00 35.49     0.034 C 
BRANCH   2   3
ATOM      3  CG  ARG D 557     -26.275   0.278 -16.285  1.00 35.49     0.027 C 
BRANCH   3   4
ATOM      4  CD  ARG D 557     -26.932  -1.031 -16.503  1.00 35.49     0.116 C 
BRANCH   4   5
ATOM      5  NE  ARG D 557     -26.879  -1.866 -15.332  1.00 35.49    -0.212 N 
ATOM      6  CZ  ARG D 557     -25.792  -2.189 -14.668  1.00 35.49     0.666 C 
ATOM      7  NH1 ARG D 557     -24.591  -1.775 -15.029  1.00 35.49    -0.235 N 
ATOM      8  NH2 ARG D 557     -25.933  -2.941 -13.615  1.00 35.49    -0.235 N 
ATOM      9  HH  ARG D 557     -24.475  -1.278 -15.717  1.00 35.49     0.174 HD
ATOM     10  HH  ARG D 557     -23.919  -2.016 -14.555  1.00 35.49     0.174 HD
ATOM     11  HH  ARG D 557     -26.721  -3.187 -13.402  1.00 35.49     0.174 HD
ATOM     12  HH  ARG D 557     -25.255  -3.167 -13.158  1.00 35.49     0.174 HD
ATOM     13  HE  ARG D 557     -27.599  -2.236 -15.073  1.00 35.49     0.178 HD
ENDBRANCH   4   5
ENDBRANCH   3   4
ENDBRANCH   2   3
ENDBRANCH   1   2
END_RES ARG D 557
BEGIN_RES GLU D 570
REMARK  3 active torsions:
REMARK  status: ('A' for Active; 'I' for Inactive)
REMARK    5  A    between atoms: CA   and  CB  
REMARK    6  A    between atoms: CB   and  CG  
REMARK    7  A    between atoms: CG   and  CD  
ROOT
ATOM     14  CA  GLU D 570     -18.033  -6.348 -13.375  1.00 32.92     0.160 C 
ENDROOT
BRANCH  14  15
ATOM     15  CB  GLU D 570     -19.500  -6.345 -13.794  1.00 32.92     0.043 C 
BRANCH  15  16
ATOM     16  CG  GLU D 570     -20.075  -7.625 -14.281  1.00 32.92     0.100 C 
BRANCH  16  17
ATOM     17  CD  GLU D 570     -20.621  -7.529 -15.687  1.00 32.92     0.185 C 
ATOM     18  OE1 GLU D 570     -21.231  -8.504 -16.167  1.00 32.92    -0.647 OA
ATOM     19  OE2 GLU D 570     -20.422  -6.474 -16.320  1.00 32.92    -0.647 OA
ENDBRANCH  16  17
ENDBRANCH  15  16
ENDBRANCH  14  15
END_RES GLU D 570
ENDMDL
MODEL 8
REMARK VINA RESULT:      -5.7      1.895      2.637
REMARK  32 active torsions:
REMARK  status: ('A' for Active; 'I' for Inactive)
REMARK    1  A    between atoms: C_2  and  C_3 
REMARK    2  A    between atoms: C_3  and  C_4 
REMARK    3  A    between atoms: C_4  and  C_5 
REMARK    4  A    between atoms: C_5  and  C_6 
REMARK    5  A    between atoms: C_6  and  C_7 
REMARK    6  A    between atoms: C_7  and  C_8 
REMARK    7  A    between atoms: C_8  and  C_9 
REMARK    8  A    between atoms: C_9  and  C_10 
REMARK    9  A    between atoms: C_10  and  C_11 
REMARK   10  A    between atoms: C_11  and  C_12 
REMARK   11  A    between atoms: C_12  and  O_13 
REMARK   12  A    between atoms: O_13  and  C_14 
REMARK   13  A    between atoms: C_14  and  C_15 
REMARK   14  A    between atoms: C_15  and  O_16 
REMARK   15  A    between atoms: O_16  and  C_17 
REMARK   16  A    between atoms: C_17  and  C_18 
REMARK   17  A    between atoms: C_18  and  O_19 
REMARK   18  A    between atoms: O_19  and  C_20 
REMARK   19  A    between atoms: C_20  and  C_21 
REMARK   20  A    between atoms: C_21  and  O_22 
REMARK   21  A    between atoms: O_22  and  C_23 
REMARK   22  A    between atoms: C_23  and  C_24 
REMARK   23  A    between atoms: C_24  and  O_25 
REMARK   24  A    between atoms: O_25  and  C_26 
REMARK   25  A    between atoms: C_26  and  C_27 
REMARK   26  A    between atoms: C_27  and  O_28 
REMARK   27  A    between atoms: O_28  and  C_29 
REMARK   28  A    between atoms: C_29  and  C_30 
REMARK   29  A    between atoms: C_30  and  O_31 
REMARK   30  A    between atoms: O_31  and  C_32 
REMARK   31  A    between atoms: C_32  and  C_33 
REMARK   32  A    between atoms: C_33  and  O_34 
ROOT
HETATM    1  C   UNL     1     -28.633  -5.012 -18.147  1.00  0.00     0.193 C 
ENDROOT
BRANCH   1   2
HETATM    2  C   UNL     1     -28.863  -6.300 -17.379  1.00  0.00     0.193 C 
BRANCH   2   3
HETATM    3  O   UNL     1     -27.934  -6.348 -16.295  1.00  0.00    -0.387 OA
BRANCH   3   4
HETATM    4  C   UNL     1     -27.574  -5.043 -15.864  1.00  0.00     0.193 C 
BRANCH   4   5
HETATM    5  C   UNL     1     -26.100  -5.051 -15.509  1.00  0.00     0.193 C 
BRANCH   5   6
HETATM    6  O   UNL     1     -25.489  -6.156 -16.156  1.00  0.00    -0.389 OA
BRANCH   6   7
HETATM    7  C   UNL     1     -24.433  -6.682 -15.362  1.00  0.00     0.167 C 
BRANCH   7   8
HETATM    8  C   UNL     1     -23.598  -5.527 -14.842  1.00  0.00     0.026 C 
BRANCH   8   9
HETATM    9  C   UNL     1     -23.388  -5.678 -13.343  1.00  0.00     0.002 C 
BRANCH   9  10
HETATM   10  C   UNL     1     -22.256  -4.787 -12.861  1.00  0.00     0.000 C 
BRANCH  10  11
HETATM   11  C   UNL     1     -22.546  -4.298 -11.449  1.00  0.00     0.000 C 
BRANCH  11  12
HETATM   12  C   UNL     1     -23.648  -5.135 -10.817  1.00  0.00     0.000 C 
BRANCH  12  13
HETATM   13  C   UNL     1     -24.384  -4.326  -9.760  1.00  0.00     0.000 C 
BRANCH  13  14
HETATM   14  C   UNL     1     -23.390  -3.616  -8.853  1.00  0.00     0.000 C 
BRANCH  14  15
HETATM   15  C   UNL     1     -23.236  -4.371  -7.541  1.00  0.00     0.000 C 
BRANCH  15  16
HETATM   16  C   UNL     1     -21.802  -4.857  -7.373  1.00  0.00    -0.000 C 
BRANCH  16  17
HETATM   17  C   UNL     1     -20.834  -3.965  -8.141  1.00  0.00    -0.005 C 
HETATM   18  C   UNL     1     -19.831  -4.800  -8.915  1.00  0.00     0.005 C 
ENDBRANCH  16  17
ENDBRANCH  15  16
ENDBRANCH  14  15
ENDBRANCH  13  14
ENDBRANCH  12  13
ENDBRANCH  11  12
ENDBRANCH  10  11
ENDBRANCH   9  10
ENDBRANCH   8   9
ENDBRANCH   7   8
ENDBRANCH   6   7
ENDBRANCH   5   6
ENDBRANCH   4   5
ENDBRANCH   3   4
ENDBRANCH   2   3
ENDBRANCH   1   2
BRANCH   1  19
HETATM   19  O   UNL     1     -29.905  -4.472 -18.497  1.00  0.00    -0.387 OA
BRANCH  19  20
HETATM   20  C   UNL     1     -30.490  -3.781 -17.393  1.00  0.00     0.193 C 
BRANCH  20  21
HETATM   21  C   UNL     1     -31.986  -3.663 -17.618  1.00  0.00     0.193 C 
BRANCH  21  22
HETATM   22  O   UNL     1     -32.648  -4.640 -16.820  1.00  0.00    -0.387 OA
BRANCH  22  23
HETATM   23  C   UNL     1     -33.631  -4.036 -15.989  1.00  0.00     0.193 C 
BRANCH  23  24
HETATM   24  C   UNL     1     -34.305  -2.922 -16.768  1.00  0.00     0.193 C 
BRANCH  24  25
HETATM   25  O   UNL     1     -35.085  -2.135 -15.870  1.00  0.00    -0.387 OA
BRANCH  25  26
HETATM   26  C   UNL     1     -35.729  -1.073 -16.559  1.00  0.00     0.193 C 
BRANCH  26  27
HETATM   27  C   UNL     1     -36.245  -0.079 -15.533  1.00  0.00     0.193 C 
BRANCH  27  28
HETATM   28  O   UNL     1     -36.876  -0.791 -14.470  1.00  0.00    -0.387 OA
BRANCH  28  29
HETATM   29  C   UNL     1     -36.971   0.009 -13.294  1.00  0.00     0.193 C 
BRANCH  29  30
HETATM   30  C   UNL     1     -35.834  -0.359 -12.352  1.00  0.00     0.193 C 
BRANCH  30  31
HETATM   31  O   UNL     1     -35.951   0.397 -11.147  1.00  0.00    -0.387 OA
BRANCH  31  32
HETATM   32  C   UNL     1     -37.216   0.180 -10.519  1.00  0.00     0.193 C 
BRANCH  32  33
HETATM   33  C   UNL     1     -37.034   0.285  -9.017  1.00  0.00     0.190 C 
BRANCH  33  34
HETATM   34  O   UNL     1     -36.309   1.465  -8.694  1.00  0.00    -0.399 OA
HETATM   35  H   UNL     1     -35.574   1.202  -8.112  1.00  0.00     0.209 HD
ENDBRANCH  33  34
ENDBRANCH  32  33
ENDBRANCH  31  32
ENDBRANCH  30  31
ENDBRANCH  29  30
ENDBRANCH  28  29
ENDBRANCH  27  28
ENDBRANCH  26  27
ENDBRANCH  25  26
ENDBRANCH  24  25
ENDBRANCH  23  24
ENDBRANCH  22  23
ENDBRANCH  21  22
ENDBRANCH  20  21
ENDBRANCH  19  20
ENDBRANCH   1  19
TORSDOF 32
BEGIN_RES ARG D 557
REMARK  4 active torsions:
REMARK  status: ('A' for Active; 'I' for Inactive)
REMARK    1  A    between atoms: CA   and  CB  
REMARK    2  A    between atoms: CB   and  CG  
REMARK    3  A    between atoms: CG   and  CD  
REMARK    4  A    between atoms: CD   and  NE  
REMARK       I    between atoms: NE   and  CZ  
REMARK       I    between atoms: CZ   and  NH1 
REMARK       I    between atoms: CZ   and  NH2 
ROOT
ATOM      1  CA  ARG D 557     -26.217   2.705 -17.014  1.00 35.49     0.159 C 
ENDROOT
BRANCH   1   2
ATOM      2  CB  ARG D 557     -26.789   1.319 -17.183  1.00 35.49     0.034 C 
BRANCH   2   3
ATOM      3  CG  ARG D 557     -25.962   0.201 -16.713  1.00 35.49     0.027 C 
BRANCH   3   4
ATOM      4  CD  ARG D 557     -26.770  -0.889 -16.120  1.00 35.49     0.116 C 
BRANCH   4   5
ATOM      5  NE  ARG D 557     -26.034  -1.635 -15.134  1.00 35.49    -0.212 N 
ATOM      6  CZ  ARG D 557     -24.833  -1.341 -14.686  1.00 35.49     0.666 C 
ATOM      7  NH1 ARG D 557     -24.149  -0.299 -15.123  1.00 35.49    -0.235 N 
ATOM      8  NH2 ARG D 557     -24.325  -2.118 -13.774  1.00 35.49    -0.235 N 
ATOM      9  HH  ARG D 557     -24.465   0.227 -15.721  1.00 35.49     0.174 HD
ATOM     10  HH  ARG D 557     -23.372  -0.155 -14.793  1.00 35.49     0.174 HD
ATOM     11  HH  ARG D 557     -24.793  -2.779 -13.506  1.00 35.49     0.174 HD
ATOM     12  HH  ARG D 557     -23.555  -1.958 -13.459  1.00 35.49     0.174 HD
ATOM     13  HE  ARG D 557     -26.370  -2.363 -14.851  1.00 35.49     0.178 HD
ENDBRANCH   4   5
ENDBRANCH   3   4
ENDBRANCH   2   3
ENDBRANCH   1   2
END_RES ARG D 557
BEGIN_RES GLU D 570
REMARK  3 active torsions:
REMARK  status: ('A' for Active; 'I' for Inactive)
REMARK    5  A    between atoms: CA   and  CB  
REMARK    6  A    between atoms: CB   and  CG  
REMARK    7  A    between atoms: CG   and  CD  
ROOT
ATOM     14  CA  GLU D 570     -18.033  -6.348 -13.375  1.00 32.92     0.160 C 
ENDROOT
BRANCH  14  15
ATOM     15  CB  GLU D 570     -19.500  -6.345 -13.794  1.00 32.92     0.043 C 
BRANCH  15  16
ATOM     16  CG  GLU D 570     -20.064  -7.615 -14.320  1.00 32.92     0.100 C 
BRANCH  16  17
ATOM     17  CD  GLU D 570     -20.714  -7.455 -15.674  1.00 32.92     0.185 C 
ATOM     18  OE1 GLU D 570     -21.425  -8.377 -16.117  1.00 32.92    -0.647 OA
ATOM     19  OE2 GLU D 570     -20.495  -6.403 -16.307  1.00 32.92    -0.647 OA
ENDBRANCH  16  17
ENDBRANCH  15  16
ENDBRANCH  14  15
END_RES GLU D 570
ENDMDL
MODEL 9
REMARK VINA RESULT:      -5.7      4.898      9.675
REMARK  32 active torsions:
REMARK  status: ('A' for Active; 'I' for Inactive)
REMARK    1  A    between atoms: C_2  and  C_3 
REMARK    2  A    between atoms: C_3  and  C_4 
REMARK    3  A    between atoms: C_4  and  C_5 
REMARK    4  A    between atoms: C_5  and  C_6 
REMARK    5  A    between atoms: C_6  and  C_7 
REMARK    6  A    between atoms: C_7  and  C_8 
REMARK    7  A    between atoms: C_8  and  C_9 
REMARK    8  A    between atoms: C_9  and  C_10 
REMARK    9  A    between atoms: C_10  and  C_11 
REMARK   10  A    between atoms: C_11  and  C_12 
REMARK   11  A    between atoms: C_12  and  O_13 
REMARK   12  A    between atoms: O_13  and  C_14 
REMARK   13  A    between atoms: C_14  and  C_15 
REMARK   14  A    between atoms: C_15  and  O_16 
REMARK   15  A    between atoms: O_16  and  C_17 
REMARK   16  A    between atoms: C_17  and  C_18 
REMARK   17  A    between atoms: C_18  and  O_19 
REMARK   18  A    between atoms: O_19  and  C_20 
REMARK   19  A    between atoms: C_20  and  C_21 
REMARK   20  A    between atoms: C_21  and  O_22 
REMARK   21  A    between atoms: O_22  and  C_23 
REMARK   22  A    between atoms: C_23  and  C_24 
REMARK   23  A    between atoms: C_24  and  O_25 
REMARK   24  A    between atoms: O_25  and  C_26 
REMARK   25  A    between atoms: C_26  and  C_27 
REMARK   26  A    between atoms: C_27  and  O_28 
REMARK   27  A    between atoms: O_28  and  C_29 
REMARK   28  A    between atoms: C_29  and  C_30 
REMARK   29  A    between atoms: C_30  and  O_31 
REMARK   30  A    between atoms: O_31  and  C_32 
REMARK   31  A    between atoms: C_32  and  C_33 
REMARK   32  A    between atoms: C_33  and  O_34 
ROOT
HETATM    1  C   UNL     1     -20.464  -3.283 -11.019  1.00  0.00     0.193 C 
ENDROOT
BRANCH   1   2
HETATM    2  C   UNL     1     -20.475  -4.356  -9.946  1.00  0.00     0.193 C 
BRANCH   2   3
HETATM    3  O   UNL     1     -19.819  -3.838  -8.787  1.00  0.00    -0.387 OA
BRANCH   3   4
HETATM    4  C   UNL     1     -20.065  -4.649  -7.647  1.00  0.00     0.193 C 
BRANCH   4   5
HETATM    5  C   UNL     1     -21.518  -4.480  -7.250  1.00  0.00     0.193 C 
BRANCH   5   6
HETATM    6  O   UNL     1     -21.866  -5.531  -6.362  1.00  0.00    -0.389 OA
BRANCH   6   7
HETATM    7  C   UNL     1     -20.984  -5.558  -5.246  1.00  0.00     0.167 C 
BRANCH   7   8
HETATM    8  C   UNL     1     -20.447  -6.968  -5.088  1.00  0.00     0.026 C 
BRANCH   8   9
HETATM    9  C   UNL     1     -21.581  -7.913  -4.722  1.00  0.00     0.002 C 
BRANCH   9  10
HETATM   10  C   UNL     1     -21.313  -9.313  -5.246  1.00  0.00     0.000 C 
BRANCH  10  11
HETATM   11  C   UNL     1     -21.592 -10.338  -4.156  1.00  0.00     0.000 C 
BRANCH  11  12
HETATM   12  C   UNL     1     -20.826  -9.983  -2.891  1.00  0.00     0.000 C 
BRANCH  12  13
HETATM   13  C   UNL     1     -21.368 -10.770  -1.708  1.00  0.00     0.000 C 
BRANCH  13  14
HETATM   14  C   UNL     1     -20.535 -10.495  -0.466  1.00  0.00     0.000 C 
BRANCH  14  15
HETATM   15  C   UNL     1     -21.414  -9.955   0.654  1.00  0.00     0.000 C 
BRANCH  15  16
HETATM   16  C   UNL     1     -21.358  -8.434   0.685  1.00  0.00    -0.000 C 
BRANCH  16  17
HETATM   17  C   UNL     1     -22.616  -7.832   0.070  1.00  0.00    -0.005 C 
HETATM   18  C   UNL     1     -22.266  -6.943  -1.110  1.00  0.00     0.005 C 
ENDBRANCH  16  17
ENDBRANCH  15  16
ENDBRANCH  14  15
ENDBRANCH  13  14
ENDBRANCH  12  13
ENDBRANCH  11  12
ENDBRANCH  10  11
ENDBRANCH   9  10
ENDBRANCH   8   9
ENDBRANCH   7   8
ENDBRANCH   6   7
ENDBRANCH   5   6
ENDBRANCH   4   5
ENDBRANCH   3   4
ENDBRANCH   2   3
ENDBRANCH   1   2
BRANCH   1  19
HETATM   19  O   UNL     1     -21.647  -3.426 -11.800  1.00  0.00    -0.387 OA
BRANCH  19  20
HETATM   20  C   UNL     1     -22.709  -3.983 -11.026  1.00  0.00     0.193 C 
BRANCH  20  21
HETATM   21  C   UNL     1     -23.631  -4.768 -11.940  1.00  0.00     0.193 C 
BRANCH  21  22
HETATM   22  O   UNL     1     -24.217  -3.871 -12.879  1.00  0.00    -0.387 OA
BRANCH  22  23
HETATM   23  C   UNL     1     -24.008  -4.323 -14.212  1.00  0.00     0.193 C 
BRANCH  23  24
HETATM   24  C   UNL     1     -23.568  -5.774 -14.166  1.00  0.00     0.193 C 
BRANCH  24  25
HETATM   25  O   UNL     1     -24.638  -6.597 -14.630  1.00  0.00    -0.387 OA
BRANCH  25  26
HETATM   26  C   UNL     1     -24.313  -7.190 -15.879  1.00  0.00     0.193 C 
BRANCH  26  27
HETATM   27  C   UNL     1     -25.351  -6.757 -16.900  1.00  0.00     0.193 C 
BRANCH  27  28
HETATM   28  O   UNL     1     -24.726  -6.641 -18.178  1.00  0.00    -0.387 OA
BRANCH  28  29
HETATM   29  C   UNL     1     -25.672  -6.800 -19.234  1.00  0.00     0.193 C 
BRANCH  29  30
HETATM   30  C   UNL     1     -24.926  -6.883 -20.557  1.00  0.00     0.193 C 
BRANCH  30  31
HETATM   31  O   UNL     1     -24.005  -7.973 -20.517  1.00  0.00    -0.387 OA
BRANCH  31  32
HETATM   32  C   UNL     1     -23.416  -8.203 -21.799  1.00  0.00     0.193 C 
BRANCH  32  33
HETATM   33  C   UNL     1     -22.072  -8.876 -21.599  1.00  0.00     0.190 C 
BRANCH  33  34
HETATM   34  O   UNL     1     -21.504  -8.470 -20.360  1.00  0.00    -0.399 OA
HETATM   35  H   UNL     1     -21.266  -7.530 -20.446  1.00  0.00     0.209 HD
ENDBRANCH  33  34
ENDBRANCH  32  33
ENDBRANCH  31  32
ENDBRANCH  30  31
ENDBRANCH  29  30
ENDBRANCH  28  29
ENDBRANCH  27  28
ENDBRANCH  26  27
ENDBRANCH  25  26
ENDBRANCH  24  25
ENDBRANCH  23  24
ENDBRANCH  22  23
ENDBRANCH  21  22
ENDBRANCH  20  21
ENDBRANCH  19  20
ENDBRANCH   1  19
TORSDOF 32
BEGIN_RES ARG D 557
REMARK  4 active torsions:
REMARK  status: ('A' for Active; 'I' for Inactive)
REMARK    1  A    between atoms: CA   and  CB  
REMARK    2  A    between atoms: CB   and  CG  
REMARK    3  A    between atoms: CG   and  CD  
REMARK    4  A    between atoms: CD   and  NE  
REMARK       I    between atoms: NE   and  CZ  
REMARK       I    between atoms: CZ   and  NH1 
REMARK       I    between atoms: CZ   and  NH2 
ROOT
ATOM      1  CA  ARG D 557     -26.217   2.705 -17.014  1.00 35.49     0.159 C 
ENDROOT
BRANCH   1   2
ATOM      2  CB  ARG D 557     -26.789   1.319 -17.183  1.00 35.49     0.034 C 
BRANCH   2   3
ATOM      3  CG  ARG D 557     -28.249   1.215 -17.290  1.00 35.49     0.027 C 
BRANCH   3   4
ATOM      4  CD  ARG D 557     -28.809   0.180 -16.392  1.00 35.49     0.116 C 
BRANCH   4   5
ATOM      5  NE  ARG D 557     -29.247  -0.985 -17.114  1.00 35.49    -0.212 N 
ATOM      6  CZ  ARG D 557     -28.695  -2.176 -17.059  1.00 35.49     0.666 C 
ATOM      7  NH1 ARG D 557     -27.632  -2.431 -16.318  1.00 35.49    -0.235 N 
ATOM      8  NH2 ARG D 557     -29.239  -3.124 -17.766  1.00 35.49    -0.235 N 
ATOM      9  HH  ARG D 557     -27.259  -1.823 -15.843  1.00 35.49     0.174 HD
ATOM     10  HH  ARG D 557     -27.316  -3.228 -16.319  1.00 35.49     0.174 HD
ATOM     11  HH  ARG D 557     -29.928  -2.932 -18.229  1.00 35.49     0.174 HD
ATOM     12  HH  ARG D 557     -28.912  -3.906 -17.753  1.00 35.49     0.174 HD
ATOM     13  HE  ARG D 557     -29.883  -0.894 -17.672  1.00 35.49     0.178 HD
ENDBRANCH   4   5
ENDBRANCH   3   4
ENDBRANCH   2   3
ENDBRANCH   1   2
END_RES ARG D 557
BEGIN_RES GLU D 570
REMARK  3 active torsions:
REMARK  status: ('A' for Active; 'I' for Inactive)
REMARK    5  A    between atoms: CA   and  CB  
REMARK    6  A    between atoms: CB   and  CG  
REMARK    7  A    between atoms: CG   and  CD  
ROOT
ATOM     14  CA  GLU D 570     -18.033  -6.348 -13.375  1.00 32.92     0.160 C 
ENDROOT
BRANCH  14  15
ATOM     15  CB  GLU D 570     -19.500  -6.345 -13.794  1.00 32.92     0.043 C 
BRANCH  15  16
ATOM     16  CG  GLU D 570     -20.097  -7.642 -14.207  1.00 32.92     0.100 C 
BRANCH  16  17
ATOM     17  CD  GLU D 570     -20.628  -7.622 -15.621  1.00 32.92     0.185 C 
ATOM     18  OE1 GLU D 570     -20.641  -6.546 -16.248  1.00 32.92    -0.647 OA
ATOM     19  OE2 GLU D 570     -21.051  -8.693 -16.101  1.00 32.92    -0.647 OA
ENDBRANCH  16  17
ENDBRANCH  15  16
ENDBRANCH  14  15
END_RES GLU D 570
ENDMDL
