MODEL 1
REMARK VINA RESULT:      -6.8      0.000      0.000
REMARK  15 active torsions:
REMARK  status: ('A' for Active; 'I' for Inactive)
REMARK    1  A    between atoms: C_2  and  C_3 
REMARK    2  A    between atoms: C_3  and  C_4 
REMARK    3  A    between atoms: C_4  and  C_5 
REMARK    4  A    between atoms: C_5  and  C_6 
REMARK    5  A    between atoms: C_6  and  C_7 
REMARK    6  A    between atoms: C_7  and  C_8 
REMARK    7  A    between atoms: C_8  and  C_9 
REMARK    8  A    between atoms: C_9  and  C_10 
REMARK    9  A    between atoms: C_10  and  C_11 
REMARK   10  A    between atoms: C_11  and  C_12 
REMARK   11  A    between atoms: C_12  and  C_13 
REMARK   12  A    between atoms: C_13  and  C_14 
REMARK   13  A    between atoms: C_14  and  C_15 
REMARK   14  A    between atoms: C_15  and  C_16 
REMARK   15  A    between atoms: C_16  and  O_18 
ROOT
HETATM    1  C   UNL     1     -20.665  -4.936  -5.955  1.00  0.00     0.000 C 
ENDROOT
BRANCH   1   2
HETATM    2  C   UNL     1     -21.946  -5.744  -6.078  1.00  0.00     0.000 C 
BRANCH   2   3
HETATM    3  C   UNL     1     -22.100  -6.661  -4.878  1.00  0.00     0.000 C 
BRANCH   3   4
HETATM    4  C   UNL     1     -21.306  -6.116  -3.704  1.00  0.00     0.000 C 
BRANCH   4   5
HETATM    5  C   UNL     1     -21.416  -7.061  -2.520  1.00  0.00     0.000 C 
BRANCH   5   6
HETATM    6  C   UNL     1     -22.250  -6.424  -1.422  1.00  0.00     0.000 C 
BRANCH   6   7
HETATM    7  C   UNL     1     -22.567  -7.450  -0.347  1.00  0.00     0.000 C 
BRANCH   7   8
HETATM    8  C   UNL     1     -22.184  -8.842  -0.822  1.00  0.00    -0.000 C 
BRANCH   8   9
HETATM    9  C   UNL     1     -21.386  -9.574   0.250  1.00  0.00    -0.005 C 
HETATM   10  C   UNL     1     -21.114  -8.659   1.425  1.00  0.00     0.005 C 
ENDBRANCH   8   9
ENDBRANCH   7   8
ENDBRANCH   6   7
ENDBRANCH   5   6
ENDBRANCH   4   5
ENDBRANCH   3   4
ENDBRANCH   2   3
ENDBRANCH   1   2
BRANCH   1  11
HETATM   11  C   UNL     1     -20.547  -3.968  -7.119  1.00  0.00     0.000 C 
BRANCH  11  12
HETATM   12  C   UNL     1     -19.783  -4.611  -8.265  1.00  0.00     0.000 C 
BRANCH  12  13
HETATM   13  C   UNL     1     -20.550  -4.448  -9.573  1.00  0.00     0.001 C 
BRANCH  13  14
HETATM   14  C   UNL     1     -21.907  -3.812  -9.307  1.00  0.00     0.010 C 
BRANCH  14  15
HETATM   15  C   UNL     1     -22.998  -4.374 -10.215  1.00  0.00     0.110 C 
BRANCH  15  16
HETATM   16  C   UNL     1     -24.303  -3.638  -9.974  1.00  0.00     0.139 C 
HETATM   17  O   UNL     1     -25.046  -3.236 -10.850  1.00  0.00    -0.650 OA
BRANCH  16  18
HETATM   18  O   UNL     1     -24.578  -3.462  -8.665  1.00  0.00    -0.776 OA
HETATM   19  H   UNL     1     -25.295  -2.824  -8.476  1.00  0.00     0.167 HD
ENDBRANCH  16  18
ENDBRANCH  15  16
ENDBRANCH  14  15
ENDBRANCH  13  14
ENDBRANCH  12  13
ENDBRANCH  11  12
ENDBRANCH   1  11
TORSDOF 15
BEGIN_RES ARG D 557
REMARK  4 active torsions:
REMARK  status: ('A' for Active; 'I' for Inactive)
REMARK    1  A    between atoms: CA   and  CB  
REMARK    2  A    between atoms: CB   and  CG  
REMARK    3  A    between atoms: CG   and  CD  
REMARK    4  A    between atoms: CD   and  NE  
REMARK       I    between atoms: NE   and  CZ  
REMARK       I    between atoms: CZ   and  NH1 
REMARK       I    between atoms: CZ   and  NH2 
ROOT
ATOM      1  CA  ARG D 557     -26.217   2.705 -17.014  1.00 35.49     0.159 C 
ENDROOT
BRANCH   1   2
ATOM      2  CB  ARG D 557     -26.789   1.319 -17.183  1.00 35.49     0.034 C 
BRANCH   2   3
ATOM      3  CG  ARG D 557     -25.837   0.202 -17.144  1.00 35.49     0.027 C 
BRANCH   3   4
ATOM      4  CD  ARG D 557     -24.754   0.418 -16.157  1.00 35.49     0.116 C 
BRANCH   4   5
ATOM      5  NE  ARG D 557     -24.890  -0.436 -15.007  1.00 35.49    -0.212 N 
ATOM      6  CZ  ARG D 557     -24.068  -1.402 -14.665  1.00 35.49     0.666 C 
ATOM      7  NH1 ARG D 557     -23.000  -1.709 -15.378  1.00 35.49    -0.235 N 
ATOM      8  NH2 ARG D 557     -24.335  -2.062 -13.576  1.00 35.49    -0.235 N 
ATOM      9  HH  ARG D 557     -22.803  -1.286 -16.098  1.00 35.49     0.174 HD
ATOM     10  HH  ARG D 557     -22.498  -2.347 -15.105  1.00 35.49     0.174 HD
ATOM     11  HH  ARG D 557     -25.028  -1.837 -13.132  1.00 35.49     0.174 HD
ATOM     12  HH  ARG D 557     -23.825  -2.690 -13.322  1.00 35.49     0.174 HD
ATOM     13  HE  ARG D 557     -25.590  -0.355 -14.530  1.00 35.49     0.178 HD
ENDBRANCH   4   5
ENDBRANCH   3   4
ENDBRANCH   2   3
ENDBRANCH   1   2
END_RES ARG D 557
BEGIN_RES GLU D 570
REMARK  3 active torsions:
REMARK  status: ('A' for Active; 'I' for Inactive)
REMARK    5  A    between atoms: CA   and  CB  
REMARK    6  A    between atoms: CB   and  CG  
REMARK    7  A    between atoms: CG   and  CD  
ROOT
ATOM     14  CA  GLU D 570     -18.033  -6.348 -13.375  1.00 32.92     0.160 C 
ENDROOT
BRANCH  14  15
ATOM     15  CB  GLU D 570     -19.500  -6.345 -13.794  1.00 32.92     0.043 C 
BRANCH  15  16
ATOM     16  CG  GLU D 570     -20.433  -5.492 -13.014  1.00 32.92     0.100 C 
BRANCH  16  17
ATOM     17  CD  GLU D 570     -21.738  -5.237 -13.731  1.00 32.92     0.185 C 
ATOM     18  OE1 GLU D 570     -22.296  -4.130 -13.598  1.00 32.92    -0.647 OA
ATOM     19  OE2 GLU D 570     -22.217  -6.159 -14.420  1.00 32.92    -0.647 OA
ENDBRANCH  16  17
ENDBRANCH  15  16
ENDBRANCH  14  15
END_RES GLU D 570
ENDMDL
MODEL 2
REMARK VINA RESULT:      -6.6      1.306      1.769
REMARK  15 active torsions:
REMARK  status: ('A' for Active; 'I' for Inactive)
REMARK    1  A    between atoms: C_2  and  C_3 
REMARK    2  A    between atoms: C_3  and  C_4 
REMARK    3  A    between atoms: C_4  and  C_5 
REMARK    4  A    between atoms: C_5  and  C_6 
REMARK    5  A    between atoms: C_6  and  C_7 
REMARK    6  A    between atoms: C_7  and  C_8 
REMARK    7  A    between atoms: C_8  and  C_9 
REMARK    8  A    between atoms: C_9  and  C_10 
REMARK    9  A    between atoms: C_10  and  C_11 
REMARK   10  A    between atoms: C_11  and  C_12 
REMARK   11  A    between atoms: C_12  and  C_13 
REMARK   12  A    between atoms: C_13  and  C_14 
REMARK   13  A    between atoms: C_14  and  C_15 
REMARK   14  A    between atoms: C_15  and  C_16 
REMARK   15  A    between atoms: C_16  and  O_18 
ROOT
HETATM    1  C   UNL     1     -20.171  -5.269  -5.885  1.00  0.00     0.000 C 
ENDROOT
BRANCH   1   2
HETATM    2  C   UNL     1     -20.821  -6.577  -6.300  1.00  0.00     0.000 C 
BRANCH   2   3
HETATM    3  C   UNL     1     -21.540  -7.199  -5.116  1.00  0.00     0.000 C 
BRANCH   3   4
HETATM    4  C   UNL     1     -20.554  -7.974  -4.260  1.00  0.00     0.000 C 
BRANCH   4   5
HETATM    5  C   UNL     1     -20.899  -7.806  -2.790  1.00  0.00     0.000 C 
BRANCH   5   6
HETATM    6  C   UNL     1     -21.586  -6.470  -2.566  1.00  0.00     0.000 C 
BRANCH   6   7
HETATM    7  C   UNL     1     -22.321  -6.479  -1.236  1.00  0.00     0.000 C 
BRANCH   7   8
HETATM    8  C   UNL     1     -21.858  -7.653  -0.389  1.00  0.00    -0.000 C 
BRANCH   8   9
HETATM    9  C   UNL     1     -23.042  -8.316   0.305  1.00  0.00    -0.005 C 
HETATM   10  C   UNL     1     -23.186  -9.752  -0.152  1.00  0.00     0.005 C 
ENDBRANCH   8   9
ENDBRANCH   7   8
ENDBRANCH   6   7
ENDBRANCH   5   6
ENDBRANCH   4   5
ENDBRANCH   3   4
ENDBRANCH   2   3
ENDBRANCH   1   2
BRANCH   1  11
HETATM   11  C   UNL     1     -20.860  -4.104  -6.576  1.00  0.00     0.000 C 
BRANCH  11  12
HETATM   12  C   UNL     1     -21.719  -4.605  -7.726  1.00  0.00     0.000 C 
BRANCH  12  13
HETATM   13  C   UNL     1     -21.126  -4.167  -9.061  1.00  0.00     0.001 C 
BRANCH  13  14
HETATM   14  C   UNL     1     -22.214  -4.119 -10.125  1.00  0.00     0.010 C 
BRANCH  14  15
HETATM   15  C   UNL     1     -23.611  -4.287  -9.533  1.00  0.00     0.110 C 
BRANCH  15  16
HETATM   16  C   UNL     1     -24.593  -3.386 -10.258  1.00  0.00     0.139 C 
HETATM   17  O   UNL     1     -25.722  -3.139  -9.876  1.00  0.00    -0.650 OA
BRANCH  16  18
HETATM   18  O   UNL     1     -24.092  -2.866 -11.397  1.00  0.00    -0.776 OA
HETATM   19  H   UNL     1     -24.068  -3.482 -12.157  1.00  0.00     0.167 HD
ENDBRANCH  16  18
ENDBRANCH  15  16
ENDBRANCH  14  15
ENDBRANCH  13  14
ENDBRANCH  12  13
ENDBRANCH  11  12
ENDBRANCH   1  11
TORSDOF 15
BEGIN_RES ARG D 557
REMARK  4 active torsions:
REMARK  status: ('A' for Active; 'I' for Inactive)
REMARK    1  A    between atoms: CA   and  CB  
REMARK    2  A    between atoms: CB   and  CG  
REMARK    3  A    between atoms: CG   and  CD  
REMARK    4  A    between atoms: CD   and  NE  
REMARK       I    between atoms: NE   and  CZ  
REMARK       I    between atoms: CZ   and  NH1 
REMARK       I    between atoms: CZ   and  NH2 
ROOT
ATOM      1  CA  ARG D 557     -26.217   2.705 -17.014  1.00 35.49     0.159 C 
ENDROOT
BRANCH   1   2
ATOM      2  CB  ARG D 557     -26.789   1.319 -17.183  1.00 35.49     0.034 C 
BRANCH   2   3
ATOM      3  CG  ARG D 557     -25.947   0.199 -16.747  1.00 35.49     0.027 C 
BRANCH   3   4
ATOM      4  CD  ARG D 557     -26.723  -0.855 -16.054  1.00 35.49     0.116 C 
BRANCH   4   5
ATOM      5  NE  ARG D 557     -25.918  -1.597 -15.120  1.00 35.49    -0.212 N 
ATOM      6  CZ  ARG D 557     -26.007  -2.887 -14.884  1.00 35.49     0.666 C 
ATOM      7  NH1 ARG D 557     -26.887  -3.660 -15.493  1.00 35.49    -0.235 N 
ATOM      8  NH2 ARG D 557     -25.181  -3.397 -14.018  1.00 35.49    -0.235 N 
ATOM      9  HH  ARG D 557     -27.439  -3.346 -16.068  1.00 35.49     0.174 HD
ATOM     10  HH  ARG D 557     -26.898  -4.495 -15.301  1.00 35.49     0.174 HD
ATOM     11  HH  ARG D 557     -24.618  -2.875 -13.646  1.00 35.49     0.174 HD
ATOM     12  HH  ARG D 557     -25.205  -4.226 -13.843  1.00 35.49     0.174 HD
ATOM     13  HE  ARG D 557     -25.373  -1.164 -14.631  1.00 35.49     0.178 HD
ENDBRANCH   4   5
ENDBRANCH   3   4
ENDBRANCH   2   3
ENDBRANCH   1   2
END_RES ARG D 557
BEGIN_RES GLU D 570
REMARK  3 active torsions:
REMARK  status: ('A' for Active; 'I' for Inactive)
REMARK    5  A    between atoms: CA   and  CB  
REMARK    6  A    between atoms: CB   and  CG  
REMARK    7  A    between atoms: CG   and  CD  
ROOT
ATOM     14  CA  GLU D 570     -18.033  -6.348 -13.375  1.00 32.92     0.160 C 
ENDROOT
BRANCH  14  15
ATOM     15  CB  GLU D 570     -19.500  -6.345 -13.794  1.00 32.92     0.043 C 
BRANCH  15  16
ATOM     16  CG  GLU D 570     -20.435  -5.502 -13.006  1.00 32.92     0.100 C 
BRANCH  16  17
ATOM     17  CD  GLU D 570     -21.737  -5.236 -13.724  1.00 32.92     0.185 C 
ATOM     18  OE1 GLU D 570     -22.209  -6.117 -14.468  1.00 32.92    -0.647 OA
ATOM     19  OE2 GLU D 570     -22.283  -4.127 -13.555  1.00 32.92    -0.647 OA
ENDBRANCH  16  17
ENDBRANCH  15  16
ENDBRANCH  14  15
END_RES GLU D 570
ENDMDL
MODEL 3
REMARK VINA RESULT:      -6.5      1.135      1.784
REMARK  15 active torsions:
REMARK  status: ('A' for Active; 'I' for Inactive)
REMARK    1  A    between atoms: C_2  and  C_3 
REMARK    2  A    between atoms: C_3  and  C_4 
REMARK    3  A    between atoms: C_4  and  C_5 
REMARK    4  A    between atoms: C_5  and  C_6 
REMARK    5  A    between atoms: C_6  and  C_7 
REMARK    6  A    between atoms: C_7  and  C_8 
REMARK    7  A    between atoms: C_8  and  C_9 
REMARK    8  A    between atoms: C_9  and  C_10 
REMARK    9  A    between atoms: C_10  and  C_11 
REMARK   10  A    between atoms: C_11  and  C_12 
REMARK   11  A    between atoms: C_12  and  C_13 
REMARK   12  A    between atoms: C_13  and  C_14 
REMARK   13  A    between atoms: C_14  and  C_15 
REMARK   14  A    between atoms: C_15  and  C_16 
REMARK   15  A    between atoms: C_16  and  O_18 
ROOT
HETATM    1  C   UNL     1     -21.302  -7.259  -5.559  1.00  0.00     0.000 C 
ENDROOT
BRANCH   1   2
HETATM    2  C   UNL     1     -21.197  -7.424  -4.053  1.00  0.00     0.000 C 
BRANCH   2   3
HETATM    3  C   UNL     1     -21.349  -6.076  -3.370  1.00  0.00     0.000 C 
BRANCH   3   4
HETATM    4  C   UNL     1     -22.100  -6.240  -2.062  1.00  0.00     0.000 C 
BRANCH   4   5
HETATM    5  C   UNL     1     -21.835  -7.618  -1.480  1.00  0.00     0.000 C 
BRANCH   5   6
HETATM    6  C   UNL     1     -22.223  -7.647  -0.012  1.00  0.00     0.000 C 
BRANCH   6   7
HETATM    7  C   UNL     1     -22.444  -9.080   0.441  1.00  0.00     0.000 C 
BRANCH   7   8
HETATM    8  C   UNL     1     -22.888  -9.938  -0.732  1.00  0.00    -0.000 C 
BRANCH   8   9
HETATM    9  C   UNL     1     -23.980 -10.911  -0.305  1.00  0.00    -0.005 C 
HETATM   10  C   UNL     1     -23.375 -12.114   0.387  1.00  0.00     0.005 C 
ENDBRANCH   8   9
ENDBRANCH   7   8
ENDBRANCH   6   7
ENDBRANCH   5   6
ENDBRANCH   4   5
ENDBRANCH   3   4
ENDBRANCH   2   3
ENDBRANCH   1   2
BRANCH   1  11
HETATM   11  C   UNL     1     -21.742  -5.845  -5.898  1.00  0.00     0.000 C 
BRANCH  11  12
HETATM   12  C   UNL     1     -21.245  -5.455  -7.281  1.00  0.00     0.000 C 
BRANCH  12  13
HETATM   13  C   UNL     1     -21.605  -4.003  -7.584  1.00  0.00     0.001 C 
BRANCH  13  14
HETATM   14  C   UNL     1     -22.317  -3.910  -8.925  1.00  0.00     0.010 C 
BRANCH  14  15
HETATM   15  C   UNL     1     -23.821  -4.137  -8.799  1.00  0.00     0.110 C 
BRANCH  15  16
HETATM   16  C   UNL     1     -24.553  -3.384  -9.895  1.00  0.00     0.139 C 
HETATM   17  O   UNL     1     -24.029  -2.932 -10.896  1.00  0.00    -0.650 OA
BRANCH  16  18
HETATM   18  O   UNL     1     -25.875  -3.257  -9.658  1.00  0.00    -0.776 OA
HETATM   19  H   UNL     1     -26.431  -3.173 -10.459  1.00  0.00     0.167 HD
ENDBRANCH  16  18
ENDBRANCH  15  16
ENDBRANCH  14  15
ENDBRANCH  13  14
ENDBRANCH  12  13
ENDBRANCH  11  12
ENDBRANCH   1  11
TORSDOF 15
BEGIN_RES ARG D 557
REMARK  4 active torsions:
REMARK  status: ('A' for Active; 'I' for Inactive)
REMARK    1  A    between atoms: CA   and  CB  
REMARK    2  A    between atoms: CB   and  CG  
REMARK    3  A    between atoms: CG   and  CD  
REMARK    4  A    between atoms: CD   and  NE  
REMARK       I    between atoms: NE   and  CZ  
REMARK       I    between atoms: CZ   and  NH1 
REMARK       I    between atoms: CZ   and  NH2 
ROOT
ATOM      1  CA  ARG D 557     -26.217   2.705 -17.014  1.00 35.49     0.159 C 
ENDROOT
BRANCH   1   2
ATOM      2  CB  ARG D 557     -26.789   1.319 -17.183  1.00 35.49     0.034 C 
BRANCH   2   3
ATOM      3  CG  ARG D 557     -25.835   0.203 -17.162  1.00 35.49     0.027 C 
BRANCH   3   4
ATOM      4  CD  ARG D 557     -24.744   0.413 -16.183  1.00 35.49     0.116 C 
BRANCH   4   5
ATOM      5  NE  ARG D 557     -24.881  -0.435 -15.028  1.00 35.49    -0.212 N 
ATOM      6  CZ  ARG D 557     -24.062  -1.404 -14.686  1.00 35.49     0.666 C 
ATOM      7  NH1 ARG D 557     -22.998  -1.720 -15.400  1.00 35.49    -0.235 N 
ATOM      8  NH2 ARG D 557     -24.330  -2.058 -13.592  1.00 35.49    -0.235 N 
ATOM      9  HH  ARG D 557     -22.801  -1.302 -16.122  1.00 35.49     0.174 HD
ATOM     10  HH  ARG D 557     -22.498  -2.360 -15.126  1.00 35.49     0.174 HD
ATOM     11  HH  ARG D 557     -25.020  -1.827 -13.147  1.00 35.49     0.174 HD
ATOM     12  HH  ARG D 557     -23.822  -2.687 -13.337  1.00 35.49     0.174 HD
ATOM     13  HE  ARG D 557     -25.579  -0.349 -14.551  1.00 35.49     0.178 HD
ENDBRANCH   4   5
ENDBRANCH   3   4
ENDBRANCH   2   3
ENDBRANCH   1   2
END_RES ARG D 557
BEGIN_RES GLU D 570
REMARK  3 active torsions:
REMARK  status: ('A' for Active; 'I' for Inactive)
REMARK    5  A    between atoms: CA   and  CB  
REMARK    6  A    between atoms: CB   and  CG  
REMARK    7  A    between atoms: CG   and  CD  
ROOT
ATOM     14  CA  GLU D 570     -18.033  -6.348 -13.375  1.00 32.92     0.160 C 
ENDROOT
BRANCH  14  15
ATOM     15  CB  GLU D 570     -19.500  -6.345 -13.794  1.00 32.92     0.043 C 
BRANCH  15  16
ATOM     16  CG  GLU D 570     -20.447  -5.553 -12.967  1.00 32.92     0.100 C 
BRANCH  16  17
ATOM     17  CD  GLU D 570     -21.737  -5.238 -13.687  1.00 32.92     0.185 C 
ATOM     18  OE1 GLU D 570     -22.243  -6.102 -14.428  1.00 32.92    -0.647 OA
ATOM     19  OE2 GLU D 570     -22.238  -4.108 -13.521  1.00 32.92    -0.647 OA
ENDBRANCH  16  17
ENDBRANCH  15  16
ENDBRANCH  14  15
END_RES GLU D 570
ENDMDL
MODEL 4
REMARK VINA RESULT:      -6.3      2.566      3.901
REMARK  15 active torsions:
REMARK  status: ('A' for Active; 'I' for Inactive)
REMARK    1  A    between atoms: C_2  and  C_3 
REMARK    2  A    between atoms: C_3  and  C_4 
REMARK    3  A    between atoms: C_4  and  C_5 
REMARK    4  A    between atoms: C_5  and  C_6 
REMARK    5  A    between atoms: C_6  and  C_7 
REMARK    6  A    between atoms: C_7  and  C_8 
REMARK    7  A    between atoms: C_8  and  C_9 
REMARK    8  A    between atoms: C_9  and  C_10 
REMARK    9  A    between atoms: C_10  and  C_11 
REMARK   10  A    between atoms: C_11  and  C_12 
REMARK   11  A    between atoms: C_12  and  C_13 
REMARK   12  A    between atoms: C_13  and  C_14 
REMARK   13  A    between atoms: C_14  and  C_15 
REMARK   14  A    between atoms: C_15  and  C_16 
REMARK   15  A    between atoms: C_16  and  O_18 
ROOT
HETATM    1  C   UNL     1     -20.196  -4.350  -9.792  1.00  0.00     0.000 C 
ENDROOT
BRANCH   1   2
HETATM    2  C   UNL     1     -20.834  -4.393  -8.414  1.00  0.00     0.000 C 
BRANCH   2   3
HETATM    3  C   UNL     1     -19.760  -4.515  -7.348  1.00  0.00     0.000 C 
BRANCH   3   4
HETATM    4  C   UNL     1     -20.393  -4.864  -6.013  1.00  0.00     0.000 C 
BRANCH   4   5
HETATM    5  C   UNL     1     -21.785  -5.431  -6.231  1.00  0.00     0.000 C 
BRANCH   5   6
HETATM    6  C   UNL     1     -22.139  -6.388  -5.106  1.00  0.00     0.000 C 
BRANCH   6   7
HETATM    7  C   UNL     1     -20.875  -6.991  -4.516  1.00  0.00     0.000 C 
BRANCH   7   8
HETATM    8  C   UNL     1     -21.108  -7.380  -3.065  1.00  0.00    -0.000 C 
BRANCH   8   9
HETATM    9  C   UNL     1     -21.892  -6.295  -2.337  1.00  0.00    -0.005 C 
HETATM   10  C   UNL     1     -22.374  -6.802  -0.994  1.00  0.00     0.005 C 
ENDBRANCH   8   9
ENDBRANCH   7   8
ENDBRANCH   6   7
ENDBRANCH   5   6
ENDBRANCH   4   5
ENDBRANCH   3   4
ENDBRANCH   2   3
ENDBRANCH   1   2
BRANCH   1  11
HETATM   11  C   UNL     1     -21.191  -3.817 -10.809  1.00  0.00     0.000 C 
BRANCH  11  12
HETATM   12  C   UNL     1     -22.610  -4.166 -10.392  1.00  0.00     0.000 C 
BRANCH  12  13
HETATM   13  C   UNL     1     -23.475  -4.430 -11.621  1.00  0.00     0.001 C 
BRANCH  13  14
HETATM   14  C   UNL     1     -24.272  -3.184 -11.978  1.00  0.00     0.010 C 
BRANCH  14  15
HETATM   15  C   UNL     1     -23.756  -2.509 -13.246  1.00  0.00     0.110 C 
BRANCH  15  16
HETATM   16  C   UNL     1     -24.766  -2.671 -14.367  1.00  0.00     0.139 C 
HETATM   17  O   UNL     1     -25.452  -1.773 -14.818  1.00  0.00    -0.650 OA
BRANCH  16  18
HETATM   18  O   UNL     1     -24.839  -3.933 -14.835  1.00  0.00    -0.776 OA
HETATM   19  H   UNL     1     -23.982  -4.329 -15.090  1.00  0.00     0.167 HD
ENDBRANCH  16  18
ENDBRANCH  15  16
ENDBRANCH  14  15
ENDBRANCH  13  14
ENDBRANCH  12  13
ENDBRANCH  11  12
ENDBRANCH   1  11
TORSDOF 15
BEGIN_RES ARG D 557
REMARK  4 active torsions:
REMARK  status: ('A' for Active; 'I' for Inactive)
REMARK    1  A    between atoms: CA   and  CB  
REMARK    2  A    between atoms: CB   and  CG  
REMARK    3  A    between atoms: CG   and  CD  
REMARK    4  A    between atoms: CD   and  NE  
REMARK       I    between atoms: NE   and  CZ  
REMARK       I    between atoms: CZ   and  NH1 
REMARK       I    between atoms: CZ   and  NH2 
ROOT
ATOM      1  CA  ARG D 557     -26.217   2.705 -17.014  1.00 35.49     0.159 C 
ENDROOT
BRANCH   1   2
ATOM      2  CB  ARG D 557     -26.789   1.319 -17.183  1.00 35.49     0.034 C 
BRANCH   2   3
ATOM      3  CG  ARG D 557     -28.156   1.104 -16.694  1.00 35.49     0.027 C 
BRANCH   3   4
ATOM      4  CD  ARG D 557     -28.728  -0.179 -17.161  1.00 35.49     0.116 C 
BRANCH   4   5
ATOM      5  NE  ARG D 557     -28.027  -1.314 -16.620  1.00 35.49    -0.212 N 
ATOM      6  CZ  ARG D 557     -28.332  -2.575 -16.828  1.00 35.49     0.666 C 
ATOM      7  NH1 ARG D 557     -29.360  -2.944 -17.571  1.00 35.49    -0.235 N 
ATOM      8  NH2 ARG D 557     -27.573  -3.476 -16.274  1.00 35.49    -0.235 N 
ATOM      9  HH  ARG D 557     -29.872  -2.368 -17.946  1.00 35.49     0.174 HD
ATOM     10  HH  ARG D 557     -29.509  -3.781 -17.673  1.00 35.49     0.174 HD
ATOM     11  HH  ARG D 557     -26.912  -3.209 -15.806  1.00 35.49     0.174 HD
ATOM     12  HH  ARG D 557     -27.735  -4.300 -16.389  1.00 35.49     0.174 HD
ATOM     13  HE  ARG D 557     -27.395  -1.168 -16.071  1.00 35.49     0.178 HD
ENDBRANCH   4   5
ENDBRANCH   3   4
ENDBRANCH   2   3
ENDBRANCH   1   2
END_RES ARG D 557
BEGIN_RES GLU D 570
REMARK  3 active torsions:
REMARK  status: ('A' for Active; 'I' for Inactive)
REMARK    5  A    between atoms: CA   and  CB  
REMARK    6  A    between atoms: CB   and  CG  
REMARK    7  A    between atoms: CG   and  CD  
ROOT
ATOM     14  CA  GLU D 570     -18.033  -6.348 -13.375  1.00 32.92     0.160 C 
ENDROOT
BRANCH  14  15
ATOM     15  CB  GLU D 570     -19.500  -6.345 -13.794  1.00 32.92     0.043 C 
BRANCH  15  16
ATOM     16  CG  GLU D 570     -19.819  -5.876 -15.167  1.00 32.92     0.100 C 
BRANCH  16  17
ATOM     17  CD  GLU D 570     -21.288  -5.584 -15.364  1.00 32.92     0.185 C 
ATOM     18  OE1 GLU D 570     -22.128  -6.420 -14.980  1.00 32.92    -0.647 OA
ATOM     19  OE2 GLU D 570     -21.602  -4.515 -15.924  1.00 32.92    -0.647 OA
ENDBRANCH  16  17
ENDBRANCH  15  16
ENDBRANCH  14  15
END_RES GLU D 570
ENDMDL
MODEL 5
REMARK VINA RESULT:      -6.3      9.070     12.944
REMARK  15 active torsions:
REMARK  status: ('A' for Active; 'I' for Inactive)
REMARK    1  A    between atoms: C_2  and  C_3 
REMARK    2  A    between atoms: C_3  and  C_4 
REMARK    3  A    between atoms: C_4  and  C_5 
REMARK    4  A    between atoms: C_5  and  C_6 
REMARK    5  A    between atoms: C_6  and  C_7 
REMARK    6  A    between atoms: C_7  and  C_8 
REMARK    7  A    between atoms: C_8  and  C_9 
REMARK    8  A    between atoms: C_9  and  C_10 
REMARK    9  A    between atoms: C_10  and  C_11 
REMARK   10  A    between atoms: C_11  and  C_12 
REMARK   11  A    between atoms: C_12  and  C_13 
REMARK   12  A    between atoms: C_13  and  C_14 
REMARK   13  A    between atoms: C_14  and  C_15 
REMARK   14  A    between atoms: C_15  and  C_16 
REMARK   15  A    between atoms: C_16  and  O_18 
ROOT
HETATM    1  C   UNL     1     -36.850   0.204 -10.728  1.00  0.00     0.000 C 
ENDROOT
BRANCH   1   2
HETATM    2  C   UNL     1     -36.585  -0.943  -9.768  1.00  0.00     0.000 C 
BRANCH   2   3
HETATM    3  C   UNL     1     -35.961  -2.111 -10.512  1.00  0.00     0.000 C 
BRANCH   3   4
HETATM    4  C   UNL     1     -34.537  -1.769 -10.911  1.00  0.00     0.000 C 
BRANCH   4   5
HETATM    5  C   UNL     1     -33.599  -2.890 -10.496  1.00  0.00     0.000 C 
BRANCH   5   6
HETATM    6  C   UNL     1     -33.093  -3.626 -11.725  1.00  0.00     0.000 C 
BRANCH   6   7
HETATM    7  C   UNL     1     -33.924  -4.875 -11.963  1.00  0.00     0.000 C 
BRANCH   7   8
HETATM    8  C   UNL     1     -33.518  -5.969 -10.988  1.00  0.00    -0.000 C 
BRANCH   8   9
HETATM    9  C   UNL     1     -34.718  -6.438 -10.176  1.00  0.00    -0.005 C 
HETATM   10  C   UNL     1     -34.678  -7.941  -9.994  1.00  0.00     0.005 C 
ENDBRANCH   8   9
ENDBRANCH   7   8
ENDBRANCH   6   7
ENDBRANCH   5   6
ENDBRANCH   4   5
ENDBRANCH   3   4
ENDBRANCH   2   3
ENDBRANCH   1   2
BRANCH   1  11
HETATM   11  C   UNL     1     -37.772  -0.255 -11.844  1.00  0.00     0.000 C 
BRANCH  11  12
HETATM   12  C   UNL     1     -37.156   0.055 -13.199  1.00  0.00     0.000 C 
BRANCH  12  13
HETATM   13  C   UNL     1     -35.727   0.561 -13.029  1.00  0.00     0.001 C 
BRANCH  13  14
HETATM   14  C   UNL     1     -34.952   0.382 -14.326  1.00  0.00     0.010 C 
BRANCH  14  15
HETATM   15  C   UNL     1     -35.856   0.443 -15.555  1.00  0.00     0.110 C 
BRANCH  15  16
HETATM   16  C   UNL     1     -35.761  -0.857 -16.333  1.00  0.00     0.139 C 
HETATM   17  O   UNL     1     -35.161  -1.848 -15.959  1.00  0.00    -0.650 OA
BRANCH  16  18
HETATM   18  O   UNL     1     -36.419  -0.818 -17.509  1.00  0.00    -0.776 OA
HETATM   19  H   UNL     1     -35.969  -1.274 -18.249  1.00  0.00     0.167 HD
ENDBRANCH  16  18
ENDBRANCH  15  16
ENDBRANCH  14  15
ENDBRANCH  13  14
ENDBRANCH  12  13
ENDBRANCH  11  12
ENDBRANCH   1  11
TORSDOF 15
BEGIN_RES ARG D 557
REMARK  4 active torsions:
REMARK  status: ('A' for Active; 'I' for Inactive)
REMARK    1  A    between atoms: CA   and  CB  
REMARK    2  A    between atoms: CB   and  CG  
REMARK    3  A    between atoms: CG   and  CD  
REMARK    4  A    between atoms: CD   and  NE  
REMARK       I    between atoms: NE   and  CZ  
REMARK       I    between atoms: CZ   and  NH1 
REMARK       I    between atoms: CZ   and  NH2 
ROOT
ATOM      1  CA  ARG D 557     -26.217   2.705 -17.014  1.00 35.49     0.159 C 
ENDROOT
BRANCH   1   2
ATOM      2  CB  ARG D 557     -26.789   1.319 -17.183  1.00 35.49     0.034 C 
BRANCH   2   3
ATOM      3  CG  ARG D 557     -28.233   1.226 -17.431  1.00 35.49     0.027 C 
BRANCH   3   4
ATOM      4  CD  ARG D 557     -28.909   0.304 -16.490  1.00 35.49     0.116 C 
BRANCH   4   5
ATOM      5  NE  ARG D 557     -29.311  -0.922 -17.127  1.00 35.49    -0.212 N 
ATOM      6  CZ  ARG D 557     -28.683  -2.074 -17.042  1.00 35.49     0.666 C 
ATOM      7  NH1 ARG D 557     -27.569  -2.224 -16.350  1.00 35.49    -0.235 N 
ATOM      8  NH2 ARG D 557     -29.203  -3.089 -17.669  1.00 35.49    -0.235 N 
ATOM      9  HH  ARG D 557     -27.210  -1.570 -15.928  1.00 35.49     0.174 HD
ATOM     10  HH  ARG D 557     -27.205  -3.000 -16.328  1.00 35.49     0.174 HD
ATOM     11  HH  ARG D 557     -29.926  -2.964 -18.102  1.00 35.49     0.174 HD
ATOM     12  HH  ARG D 557     -28.828  -3.849 -17.634  1.00 35.49     0.174 HD
ATOM     13  HE  ARG D 557     -29.979  -0.899 -17.653  1.00 35.49     0.178 HD
ENDBRANCH   4   5
ENDBRANCH   3   4
ENDBRANCH   2   3
ENDBRANCH   1   2
END_RES ARG D 557
BEGIN_RES GLU D 570
REMARK  3 active torsions:
REMARK  status: ('A' for Active; 'I' for Inactive)
REMARK    5  A    between atoms: CA   and  CB  
REMARK    6  A    between atoms: CB   and  CG  
REMARK    7  A    between atoms: CG   and  CD  
ROOT
ATOM     14  CA  GLU D 570     -18.033  -6.348 -13.375  1.00 32.92     0.160 C 
ENDROOT
BRANCH  14  15
ATOM     15  CB  GLU D 570     -19.500  -6.345 -13.794  1.00 32.92     0.043 C 
BRANCH  15  16
ATOM     16  CG  GLU D 570     -20.448  -5.561 -12.961  1.00 32.92     0.100 C 
BRANCH  16  17
ATOM     17  CD  GLU D 570     -21.701  -5.166 -13.708  1.00 32.92     0.185 C 
ATOM     18  OE1 GLU D 570     -22.746  -4.950 -13.065  1.00 32.92    -0.647 OA
ATOM     19  OE2 GLU D 570     -21.641  -5.089 -14.951  1.00 32.92    -0.647 OA
ENDBRANCH  16  17
ENDBRANCH  15  16
ENDBRANCH  14  15
END_RES GLU D 570
ENDMDL
MODEL 6
REMARK VINA RESULT:      -5.9      2.450      3.835
REMARK  15 active torsions:
REMARK  status: ('A' for Active; 'I' for Inactive)
REMARK    1  A    between atoms: C_2  and  C_3 
REMARK    2  A    between atoms: C_3  and  C_4 
REMARK    3  A    between atoms: C_4  and  C_5 
REMARK    4  A    between atoms: C_5  and  C_6 
REMARK    5  A    between atoms: C_6  and  C_7 
REMARK    6  A    between atoms: C_7  and  C_8 
REMARK    7  A    between atoms: C_8  and  C_9 
REMARK    8  A    between atoms: C_9  and  C_10 
REMARK    9  A    between atoms: C_10  and  C_11 
REMARK   10  A    between atoms: C_11  and  C_12 
REMARK   11  A    between atoms: C_12  and  C_13 
REMARK   12  A    between atoms: C_13  and  C_14 
REMARK   13  A    between atoms: C_14  and  C_15 
REMARK   14  A    between atoms: C_15  and  C_16 
REMARK   15  A    between atoms: C_16  and  O_18 
ROOT
HETATM    1  C   UNL     1     -20.120  -4.533 -10.340  1.00  0.00     0.000 C 
ENDROOT
BRANCH   1   2
HETATM    2  C   UNL     1     -20.600  -4.318  -8.914  1.00  0.00     0.000 C 
BRANCH   2   3
HETATM    3  C   UNL     1     -19.441  -4.478  -7.946  1.00  0.00     0.000 C 
BRANCH   3   4
HETATM    4  C   UNL     1     -19.962  -4.540  -6.521  1.00  0.00     0.000 C 
BRANCH   4   5
HETATM    5  C   UNL     1     -20.210  -5.984  -6.122  1.00  0.00     0.000 C 
BRANCH   5   6
HETATM    6  C   UNL     1     -21.498  -6.089  -5.324  1.00  0.00     0.000 C 
BRANCH   6   7
HETATM    7  C   UNL     1     -21.342  -7.114  -4.214  1.00  0.00     0.000 C 
BRANCH   7   8
HETATM    8  C   UNL     1     -21.634  -6.476  -2.866  1.00  0.00    -0.000 C 
BRANCH   8   9
HETATM    9  C   UNL     1     -21.585  -7.519  -1.755  1.00  0.00    -0.005 C 
HETATM   10  C   UNL     1     -22.424  -7.074  -0.575  1.00  0.00     0.005 C 
ENDBRANCH   8   9
ENDBRANCH   7   8
ENDBRANCH   6   7
ENDBRANCH   5   6
ENDBRANCH   4   5
ENDBRANCH   3   4
ENDBRANCH   2   3
ENDBRANCH   1   2
BRANCH   1  11
HETATM   11  C   UNL     1     -20.584  -3.387 -11.223  1.00  0.00     0.000 C 
BRANCH  11  12
HETATM   12  C   UNL     1     -21.751  -3.828 -12.091  1.00  0.00     0.000 C 
BRANCH  12  13
HETATM   13  C   UNL     1     -22.757  -2.691 -12.246  1.00  0.00     0.001 C 
BRANCH  13  14
HETATM   14  C   UNL     1     -24.110  -3.111 -11.692  1.00  0.00     0.010 C 
BRANCH  14  15
HETATM   15  C   UNL     1     -23.994  -4.249 -10.681  1.00  0.00     0.110 C 
BRANCH  15  16
HETATM   16  C   UNL     1     -24.288  -3.732  -9.284  1.00  0.00     0.139 C 
HETATM   17  O   UNL     1     -23.707  -4.089  -8.275  1.00  0.00    -0.650 OA
BRANCH  16  18
HETATM   18  O   UNL     1     -25.276  -2.815  -9.256  1.00  0.00    -0.776 OA
HETATM   19  H   UNL     1     -25.770  -2.766  -8.413  1.00  0.00     0.167 HD
ENDBRANCH  16  18
ENDBRANCH  15  16
ENDBRANCH  14  15
ENDBRANCH  13  14
ENDBRANCH  12  13
ENDBRANCH  11  12
ENDBRANCH   1  11
TORSDOF 15
BEGIN_RES ARG D 557
REMARK  4 active torsions:
REMARK  status: ('A' for Active; 'I' for Inactive)
REMARK    1  A    between atoms: CA   and  CB  
REMARK    2  A    between atoms: CB   and  CG  
REMARK    3  A    between atoms: CG   and  CD  
REMARK    4  A    between atoms: CD   and  NE  
REMARK       I    between atoms: NE   and  CZ  
REMARK       I    between atoms: CZ   and  NH1 
REMARK       I    between atoms: CZ   and  NH2 
ROOT
ATOM      1  CA  ARG D 557     -26.217   2.705 -17.014  1.00 35.49     0.159 C 
ENDROOT
BRANCH   1   2
ATOM      2  CB  ARG D 557     -26.789   1.319 -17.183  1.00 35.49     0.034 C 
BRANCH   2   3
ATOM      3  CG  ARG D 557     -28.252   1.201 -17.164  1.00 35.49     0.027 C 
BRANCH   3   4
ATOM      4  CD  ARG D 557     -28.717   0.079 -16.317  1.00 35.49     0.116 C 
BRANCH   4   5
ATOM      5  NE  ARG D 557     -29.355  -0.955 -17.088  1.00 35.49    -0.212 N 
ATOM      6  CZ  ARG D 557     -28.973  -2.211 -17.153  1.00 35.49     0.666 C 
ATOM      7  NH1 ARG D 557     -27.917  -2.665 -16.504  1.00 35.49    -0.235 N 
ATOM      8  NH2 ARG D 557     -29.684  -3.017 -17.887  1.00 35.49    -0.235 N 
ATOM      9  HH  ARG D 557     -27.437  -2.153 -16.013  1.00 35.49     0.174 HD
ATOM     10  HH  ARG D 557     -27.718  -3.495 -16.582  1.00 35.49     0.174 HD
ATOM     11  HH  ARG D 557     -30.364  -2.697 -18.289  1.00 35.49     0.174 HD
ATOM     12  HH  ARG D 557     -29.471  -3.835 -17.951  1.00 35.49     0.174 HD
ATOM     13  HE  ARG D 557     -30.001  -0.734 -17.595  1.00 35.49     0.178 HD
ENDBRANCH   4   5
ENDBRANCH   3   4
ENDBRANCH   2   3
ENDBRANCH   1   2
END_RES ARG D 557
BEGIN_RES GLU D 570
REMARK  3 active torsions:
REMARK  status: ('A' for Active; 'I' for Inactive)
REMARK    5  A    between atoms: CA   and  CB  
REMARK    6  A    between atoms: CB   and  CG  
REMARK    7  A    between atoms: CG   and  CD  
ROOT
ATOM     14  CA  GLU D 570     -18.033  -6.348 -13.375  1.00 32.92     0.160 C 
ENDROOT
BRANCH  14  15
ATOM     15  CB  GLU D 570     -19.500  -6.345 -13.794  1.00 32.92     0.043 C 
BRANCH  15  16
ATOM     16  CG  GLU D 570     -20.117  -7.653 -14.135  1.00 32.92     0.100 C 
BRANCH  16  17
ATOM     17  CD  GLU D 570     -20.949  -7.602 -15.395  1.00 32.92     0.185 C 
ATOM     18  OE1 GLU D 570     -20.784  -8.479 -16.265  1.00 32.92    -0.647 OA
ATOM     19  OE2 GLU D 570     -21.762  -6.665 -15.522  1.00 32.92    -0.647 OA
ENDBRANCH  16  17
ENDBRANCH  15  16
ENDBRANCH  14  15
END_RES GLU D 570
ENDMDL
MODEL 7
REMARK VINA RESULT:      -5.8      7.133     11.946
REMARK  15 active torsions:
REMARK  status: ('A' for Active; 'I' for Inactive)
REMARK    1  A    between atoms: C_2  and  C_3 
REMARK    2  A    between atoms: C_3  and  C_4 
REMARK    3  A    between atoms: C_4  and  C_5 
REMARK    4  A    between atoms: C_5  and  C_6 
REMARK    5  A    between atoms: C_6  and  C_7 
REMARK    6  A    between atoms: C_7  and  C_8 
REMARK    7  A    between atoms: C_8  and  C_9 
REMARK    8  A    between atoms: C_9  and  C_10 
REMARK    9  A    between atoms: C_10  and  C_11 
REMARK   10  A    between atoms: C_11  and  C_12 
REMARK   11  A    between atoms: C_12  and  C_13 
REMARK   12  A    between atoms: C_13  and  C_14 
REMARK   13  A    between atoms: C_14  and  C_15 
REMARK   14  A    between atoms: C_15  and  C_16 
REMARK   15  A    between atoms: C_16  and  O_18 
ROOT
HETATM    1  C   UNL     1     -30.813  -4.869 -16.515  1.00  0.00     0.000 C 
ENDROOT
BRANCH   1   2
HETATM    2  C   UNL     1     -31.333  -5.975 -17.417  1.00  0.00     0.000 C 
BRANCH   2   3
HETATM    3  C   UNL     1     -30.417  -7.184 -17.339  1.00  0.00     0.000 C 
BRANCH   3   4
HETATM    4  C   UNL     1     -29.681  -7.361 -18.654  1.00  0.00     0.000 C 
BRANCH   4   5
HETATM    5  C   UNL     1     -28.198  -7.100 -18.458  1.00  0.00     0.000 C 
BRANCH   5   6
HETATM    6  C   UNL     1     -27.645  -6.324 -19.641  1.00  0.00     0.000 C 
BRANCH   6   7
HETATM    7  C   UNL     1     -26.829  -7.243 -20.534  1.00  0.00     0.000 C 
BRANCH   7   8
HETATM    8  C   UNL     1     -25.432  -6.677 -20.732  1.00  0.00    -0.000 C 
BRANCH   8   9
HETATM    9  C   UNL     1     -24.395  -7.547 -20.032  1.00  0.00    -0.005 C 
HETATM   10  C   UNL     1     -24.174  -7.068 -18.613  1.00  0.00     0.005 C 
ENDBRANCH   8   9
ENDBRANCH   7   8
ENDBRANCH   6   7
ENDBRANCH   5   6
ENDBRANCH   4   5
ENDBRANCH   3   4
ENDBRANCH   2   3
ENDBRANCH   1   2
BRANCH   1  11
HETATM   11  C   UNL     1     -30.284  -3.718 -17.354  1.00  0.00     0.000 C 
BRANCH  11  12
HETATM   12  C   UNL     1     -28.775  -3.823 -17.504  1.00  0.00     0.000 C 
BRANCH  12  13
HETATM   13  C   UNL     1     -28.079  -2.849 -16.559  1.00  0.00     0.001 C 
BRANCH  13  14
HETATM   14  C   UNL     1     -27.059  -3.589 -15.705  1.00  0.00     0.010 C 
BRANCH  14  15
HETATM   15  C   UNL     1     -27.119  -5.100 -15.911  1.00  0.00     0.110 C 
BRANCH  15  16
HETATM   16  C   UNL     1     -25.814  -5.736 -15.468  1.00  0.00     0.139 C 
HETATM   17  O   UNL     1     -25.625  -6.934 -15.364  1.00  0.00    -0.650 OA
BRANCH  16  18
HETATM   18  O   UNL     1     -24.852  -4.832 -15.192  1.00  0.00    -0.776 OA
HETATM   19  H   UNL     1     -24.602  -4.771 -14.248  1.00  0.00     0.167 HD
ENDBRANCH  16  18
ENDBRANCH  15  16
ENDBRANCH  14  15
ENDBRANCH  13  14
ENDBRANCH  12  13
ENDBRANCH  11  12
ENDBRANCH   1  11
TORSDOF 15
BEGIN_RES ARG D 557
REMARK  4 active torsions:
REMARK  status: ('A' for Active; 'I' for Inactive)
REMARK    1  A    between atoms: CA   and  CB  
REMARK    2  A    between atoms: CB   and  CG  
REMARK    3  A    between atoms: CG   and  CD  
REMARK    4  A    between atoms: CD   and  NE  
REMARK       I    between atoms: NE   and  CZ  
REMARK       I    between atoms: CZ   and  NH1 
REMARK       I    between atoms: CZ   and  NH2 
ROOT
ATOM      1  CA  ARG D 557     -26.217   2.705 -17.014  1.00 35.49     0.159 C 
ENDROOT
BRANCH   1   2
ATOM      2  CB  ARG D 557     -26.789   1.319 -17.183  1.00 35.49     0.034 C 
BRANCH   2   3
ATOM      3  CG  ARG D 557     -25.836   0.203 -17.151  1.00 35.49     0.027 C 
BRANCH   3   4
ATOM      4  CD  ARG D 557     -24.780   0.391 -16.131  1.00 35.49     0.116 C 
BRANCH   4   5
ATOM      5  NE  ARG D 557     -24.969  -0.465 -14.990  1.00 35.49    -0.212 N 
ATOM      6  CZ  ARG D 557     -24.195  -1.470 -14.647  1.00 35.49     0.666 C 
ATOM      7  NH1 ARG D 557     -23.133  -1.819 -15.349  1.00 35.49    -0.235 N 
ATOM      8  NH2 ARG D 557     -24.506  -2.126 -13.567  1.00 35.49    -0.235 N 
ATOM      9  HH  ARG D 557     -22.908  -1.400 -16.062  1.00 35.49     0.174 HD
ATOM     10  HH  ARG D 557     -22.664  -2.482 -15.075  1.00 35.49     0.174 HD
ATOM     11  HH  ARG D 557     -25.194  -1.874 -13.129  1.00 35.49     0.174 HD
ATOM     12  HH  ARG D 557     -24.029  -2.778 -13.311  1.00 35.49     0.174 HD
ATOM     13  HE  ARG D 557     -25.671  -0.357 -14.522  1.00 35.49     0.178 HD
ENDBRANCH   4   5
ENDBRANCH   3   4
ENDBRANCH   2   3
ENDBRANCH   1   2
END_RES ARG D 557
BEGIN_RES GLU D 570
REMARK  3 active torsions:
REMARK  status: ('A' for Active; 'I' for Inactive)
REMARK    5  A    between atoms: CA   and  CB  
REMARK    6  A    between atoms: CB   and  CG  
REMARK    7  A    between atoms: CG   and  CD  
ROOT
ATOM     14  CA  GLU D 570     -18.033  -6.348 -13.375  1.00 32.92     0.160 C 
ENDROOT
BRANCH  14  15
ATOM     15  CB  GLU D 570     -19.500  -6.345 -13.794  1.00 32.92     0.043 C 
BRANCH  15  16
ATOM     16  CG  GLU D 570     -20.437  -5.509 -13.000  1.00 32.92     0.100 C 
BRANCH  16  17
ATOM     17  CD  GLU D 570     -21.737  -5.235 -13.720  1.00 32.92     0.185 C 
ATOM     18  OE1 GLU D 570     -22.374  -4.200 -13.446  1.00 32.92    -0.647 OA
ATOM     19  OE2 GLU D 570     -22.131  -6.073 -14.555  1.00 32.92    -0.647 OA
ENDBRANCH  16  17
ENDBRANCH  15  16
ENDBRANCH  14  15
END_RES GLU D 570
ENDMDL
MODEL 8
REMARK VINA RESULT:      -5.8      3.905      6.044
REMARK  15 active torsions:
REMARK  status: ('A' for Active; 'I' for Inactive)
REMARK    1  A    between atoms: C_2  and  C_3 
REMARK    2  A    between atoms: C_3  and  C_4 
REMARK    3  A    between atoms: C_4  and  C_5 
REMARK    4  A    between atoms: C_5  and  C_6 
REMARK    5  A    between atoms: C_6  and  C_7 
REMARK    6  A    between atoms: C_7  and  C_8 
REMARK    7  A    between atoms: C_8  and  C_9 
REMARK    8  A    between atoms: C_9  and  C_10 
REMARK    9  A    between atoms: C_10  and  C_11 
REMARK   10  A    between atoms: C_11  and  C_12 
REMARK   11  A    between atoms: C_12  and  C_13 
REMARK   12  A    between atoms: C_13  and  C_14 
REMARK   13  A    between atoms: C_14  and  C_15 
REMARK   14  A    between atoms: C_15  and  C_16 
REMARK   15  A    between atoms: C_16  and  O_18 
ROOT
HETATM    1  C   UNL     1     -23.243  -3.552 -11.946  1.00  0.00     0.000 C 
ENDROOT
BRANCH   1   2
HETATM    2  C   UNL     1     -23.555  -3.420 -10.465  1.00  0.00     0.000 C 
BRANCH   2   3
HETATM    3  C   UNL     1     -22.658  -4.344  -9.661  1.00  0.00     0.000 C 
BRANCH   3   4
HETATM    4  C   UNL     1     -21.228  -4.241 -10.160  1.00  0.00     0.000 C 
BRANCH   4   5
HETATM    5  C   UNL     1     -20.271  -4.771  -9.107  1.00  0.00     0.000 C 
BRANCH   5   6
HETATM    6  C   UNL     1     -20.176  -3.792  -7.949  1.00  0.00     0.000 C 
BRANCH   6   7
HETATM    7  C   UNL     1     -20.415  -4.513  -6.634  1.00  0.00     0.000 C 
BRANCH   7   8
HETATM    8  C   UNL     1     -20.827  -5.953  -6.894  1.00  0.00    -0.000 C 
BRANCH   8   9
HETATM    9  C   UNL     1     -20.285  -6.873  -5.807  1.00  0.00    -0.005 C 
HETATM   10  C   UNL     1     -21.405  -7.690  -5.199  1.00  0.00     0.005 C 
ENDBRANCH   8   9
ENDBRANCH   7   8
ENDBRANCH   6   7
ENDBRANCH   5   6
ENDBRANCH   4   5
ENDBRANCH   3   4
ENDBRANCH   2   3
ENDBRANCH   1   2
BRANCH   1  11
HETATM   11  C   UNL     1     -24.509  -3.355 -12.763  1.00  0.00     0.000 C 
BRANCH  11  12
HETATM   12  C   UNL     1     -24.289  -3.813 -14.196  1.00  0.00     0.000 C 
BRANCH  12  13
HETATM   13  C   UNL     1     -23.176  -4.854 -14.255  1.00  0.00     0.001 C 
BRANCH  13  14
HETATM   14  C   UNL     1     -23.771  -6.253 -14.319  1.00  0.00     0.010 C 
BRANCH  14  15
HETATM   15  C   UNL     1     -24.913  -6.351 -15.327  1.00  0.00     0.110 C 
BRANCH  15  16
HETATM   16  C   UNL     1     -24.455  -7.117 -16.555  1.00  0.00     0.139 C 
HETATM   17  O   UNL     1     -24.626  -6.754 -17.704  1.00  0.00    -0.650 OA
BRANCH  16  18
HETATM   18  O   UNL     1     -23.823  -8.270 -16.254  1.00  0.00    -0.776 OA
HETATM   19  H   UNL     1     -24.406  -8.990 -15.939  1.00  0.00     0.167 HD
ENDBRANCH  16  18
ENDBRANCH  15  16
ENDBRANCH  14  15
ENDBRANCH  13  14
ENDBRANCH  12  13
ENDBRANCH  11  12
ENDBRANCH   1  11
TORSDOF 15
BEGIN_RES ARG D 557
REMARK  4 active torsions:
REMARK  status: ('A' for Active; 'I' for Inactive)
REMARK    1  A    between atoms: CA   and  CB  
REMARK    2  A    between atoms: CB   and  CG  
REMARK    3  A    between atoms: CG   and  CD  
REMARK    4  A    between atoms: CD   and  NE  
REMARK       I    between atoms: NE   and  CZ  
REMARK       I    between atoms: CZ   and  NH1 
REMARK       I    between atoms: CZ   and  NH2 
ROOT
ATOM      1  CA  ARG D 557     -26.217   2.705 -17.014  1.00 35.49     0.159 C 
ENDROOT
BRANCH   1   2
ATOM      2  CB  ARG D 557     -26.789   1.319 -17.183  1.00 35.49     0.034 C 
BRANCH   2   3
ATOM      3  CG  ARG D 557     -28.144   1.095 -16.664  1.00 35.49     0.027 C 
BRANCH   3   4
ATOM      4  CD  ARG D 557     -28.792  -0.090 -17.269  1.00 35.49     0.116 C 
BRANCH   4   5
ATOM      5  NE  ARG D 557     -28.176  -1.320 -16.846  1.00 35.49    -0.212 N 
ATOM      6  CZ  ARG D 557     -28.655  -2.528 -17.046  1.00 35.49     0.666 C 
ATOM      7  NH1 ARG D 557     -29.801  -2.742 -17.666  1.00 35.49    -0.235 N 
ATOM      8  NH2 ARG D 557     -27.951  -3.532 -16.612  1.00 35.49    -0.235 N 
ATOM      9  HH  ARG D 557     -30.280  -2.096 -17.962  1.00 35.49     0.174 HD
ATOM     10  HH  ARG D 557     -30.062  -3.552 -17.769  1.00 35.49     0.174 HD
ATOM     11  HH  ARG D 557     -27.212  -3.364 -16.222  1.00 35.49     0.174 HD
ATOM     12  HH  ARG D 557     -28.226  -4.326 -16.725  1.00 35.49     0.174 HD
ATOM     13  HE  ARG D 557     -27.470  -1.272 -16.375  1.00 35.49     0.178 HD
ENDBRANCH   4   5
ENDBRANCH   3   4
ENDBRANCH   2   3
ENDBRANCH   1   2
END_RES ARG D 557
BEGIN_RES GLU D 570
REMARK  3 active torsions:
REMARK  status: ('A' for Active; 'I' for Inactive)
REMARK    5  A    between atoms: CA   and  CB  
REMARK    6  A    between atoms: CB   and  CG  
REMARK    7  A    between atoms: CG   and  CD  
ROOT
ATOM     14  CA  GLU D 570     -18.033  -6.348 -13.375  1.00 32.92     0.160 C 
ENDROOT
BRANCH  14  15
ATOM     15  CB  GLU D 570     -19.500  -6.345 -13.794  1.00 32.92     0.043 C 
BRANCH  15  16
ATOM     16  CG  GLU D 570     -19.807  -6.015 -15.210  1.00 32.92     0.100 C 
BRANCH  16  17
ATOM     17  CD  GLU D 570     -20.628  -7.080 -15.899  1.00 32.92     0.185 C 
ATOM     18  OE1 GLU D 570     -21.151  -6.823 -17.000  1.00 32.92    -0.647 OA
ATOM     19  OE2 GLU D 570     -20.763  -8.178 -15.323  1.00 32.92    -0.647 OA
ENDBRANCH  16  17
ENDBRANCH  15  16
ENDBRANCH  14  15
END_RES GLU D 570
ENDMDL
MODEL 9
REMARK VINA RESULT:      -5.7      1.643      2.047
REMARK  15 active torsions:
REMARK  status: ('A' for Active; 'I' for Inactive)
REMARK    1  A    between atoms: C_2  and  C_3 
REMARK    2  A    between atoms: C_3  and  C_4 
REMARK    3  A    between atoms: C_4  and  C_5 
REMARK    4  A    between atoms: C_5  and  C_6 
REMARK    5  A    between atoms: C_6  and  C_7 
REMARK    6  A    between atoms: C_7  and  C_8 
REMARK    7  A    between atoms: C_8  and  C_9 
REMARK    8  A    between atoms: C_9  and  C_10 
REMARK    9  A    between atoms: C_10  and  C_11 
REMARK   10  A    between atoms: C_11  and  C_12 
REMARK   11  A    between atoms: C_12  and  C_13 
REMARK   12  A    between atoms: C_13  and  C_14 
REMARK   13  A    between atoms: C_14  and  C_15 
REMARK   14  A    between atoms: C_15  and  C_16 
REMARK   15  A    between atoms: C_16  and  O_18 
ROOT
HETATM    1  C   UNL     1     -20.196  -6.247  -6.705  1.00  0.00     0.000 C 
ENDROOT
BRANCH   1   2
HETATM    2  C   UNL     1     -20.474  -6.832  -5.331  1.00  0.00     0.000 C 
BRANCH   2   3
HETATM    3  C   UNL     1     -21.736  -6.218  -4.751  1.00  0.00     0.000 C 
BRANCH   3   4
HETATM    4  C   UNL     1     -21.749  -6.390  -3.243  1.00  0.00     0.000 C 
BRANCH   4   5
HETATM    5  C   UNL     1     -20.951  -7.622  -2.853  1.00  0.00     0.000 C 
BRANCH   5   6
HETATM    6  C   UNL     1     -21.060  -7.862  -1.357  1.00  0.00     0.000 C 
BRANCH   6   7
HETATM    7  C   UNL     1     -22.235  -7.084  -0.789  1.00  0.00     0.000 C 
BRANCH   7   8
HETATM    8  C   UNL     1     -23.059  -7.974   0.127  1.00  0.00    -0.000 C 
BRANCH   8   9
HETATM    9  C   UNL     1     -22.536  -9.405   0.100  1.00  0.00    -0.005 C 
HETATM   10  C   UNL     1     -23.665 -10.376  -0.173  1.00  0.00     0.005 C 
ENDBRANCH   8   9
ENDBRANCH   7   8
ENDBRANCH   6   7
ENDBRANCH   5   6
ENDBRANCH   4   5
ENDBRANCH   3   4
ENDBRANCH   2   3
ENDBRANCH   1   2
BRANCH   1  11
HETATM   11  C   UNL     1     -19.708  -4.814  -6.572  1.00  0.00     0.000 C 
BRANCH  11  12
HETATM   12  C   UNL     1     -20.229  -3.970  -7.724  1.00  0.00     0.000 C 
BRANCH  12  13
HETATM   13  C   UNL     1     -21.733  -3.753  -7.586  1.00  0.00     0.001 C 
BRANCH  13  14
HETATM   14  C   UNL     1     -22.383  -3.706  -8.961  1.00  0.00     0.010 C 
BRANCH  14  15
HETATM   15  C   UNL     1     -21.546  -4.418 -10.021  1.00  0.00     0.110 C 
BRANCH  15  16
HETATM   16  C   UNL     1     -21.306  -3.492 -11.199  1.00  0.00     0.139 C 
HETATM   17  O   UNL     1     -22.109  -2.680 -11.620  1.00  0.00    -0.650 OA
BRANCH  16  18
HETATM   18  O   UNL     1     -20.088  -3.650 -11.756  1.00  0.00    -0.776 OA
HETATM   19  H   UNL     1     -19.354  -3.221 -11.272  1.00  0.00     0.167 HD
ENDBRANCH  16  18
ENDBRANCH  15  16
ENDBRANCH  14  15
ENDBRANCH  13  14
ENDBRANCH  12  13
ENDBRANCH  11  12
ENDBRANCH   1  11
TORSDOF 15
BEGIN_RES ARG D 557
REMARK  4 active torsions:
REMARK  status: ('A' for Active; 'I' for Inactive)
REMARK    1  A    between atoms: CA   and  CB  
REMARK    2  A    between atoms: CB   and  CG  
REMARK    3  A    between atoms: CG   and  CD  
REMARK    4  A    between atoms: CD   and  NE  
REMARK       I    between atoms: NE   and  CZ  
REMARK       I    between atoms: CZ   and  NH1 
REMARK       I    between atoms: CZ   and  NH2 
ROOT
ATOM      1  CA  ARG D 557     -26.217   2.705 -17.014  1.00 35.49     0.159 C 
ENDROOT
BRANCH   1   2
ATOM      2  CB  ARG D 557     -26.789   1.319 -17.183  1.00 35.49     0.034 C 
BRANCH   2   3
ATOM      3  CG  ARG D 557     -26.920   0.506 -15.968  1.00 35.49     0.027 C 
BRANCH   3   4
ATOM      4  CD  ARG D 557     -26.576  -0.916 -16.200  1.00 35.49     0.116 C 
BRANCH   4   5
ATOM      5  NE  ARG D 557     -25.828  -1.478 -15.107  1.00 35.49    -0.212 N 
ATOM      6  CZ  ARG D 557     -24.584  -1.189 -14.799  1.00 35.49     0.666 C 
ATOM      7  NH1 ARG D 557     -23.862  -0.331 -15.495  1.00 35.49    -0.235 N 
ATOM      8  NH2 ARG D 557     -24.070  -1.780 -13.759  1.00 35.49    -0.235 N 
ATOM      9  HH  ARG D 557     -24.180   0.071 -16.181  1.00 35.49     0.174 HD
ATOM     10  HH  ARG D 557     -23.056  -0.179 -15.245  1.00 35.49     0.174 HD
ATOM     11  HH  ARG D 557     -24.562  -2.324 -13.324  1.00 35.49     0.174 HD
ATOM     12  HH  ARG D 557     -23.271  -1.616 -13.526  1.00 35.49     0.174 HD
ATOM     13  HE  ARG D 557     -26.193  -2.095 -14.649  1.00 35.49     0.178 HD
ENDBRANCH   4   5
ENDBRANCH   3   4
ENDBRANCH   2   3
ENDBRANCH   1   2
END_RES ARG D 557
BEGIN_RES GLU D 570
REMARK  3 active torsions:
REMARK  status: ('A' for Active; 'I' for Inactive)
REMARK    5  A    between atoms: CA   and  CB  
REMARK    6  A    between atoms: CB   and  CG  
REMARK    7  A    between atoms: CG   and  CD  
ROOT
ATOM     14  CA  GLU D 570     -18.033  -6.348 -13.375  1.00 32.92     0.160 C 
ENDROOT
BRANCH  14  15
ATOM     15  CB  GLU D 570     -19.500  -6.345 -13.794  1.00 32.92     0.043 C 
BRANCH  15  16
ATOM     16  CG  GLU D 570     -19.803  -6.072 -15.223  1.00 32.92     0.100 C 
BRANCH  16  17
ATOM     17  CD  GLU D 570     -21.272  -5.823 -15.476  1.00 32.92     0.185 C 
ATOM     18  OE1 GLU D 570     -21.640  -4.686 -15.831  1.00 32.92    -0.647 OA
ATOM     19  OE2 GLU D 570     -22.064  -6.769 -15.302  1.00 32.92    -0.647 OA
ENDBRANCH  16  17
ENDBRANCH  15  16
ENDBRANCH  14  15
END_RES GLU D 570
ENDMDL
