MODEL 1
REMARK VINA RESULT:      -7.1      0.000      0.000
REMARK  4 active torsions:
REMARK  status: ('A' for Active; 'I' for Inactive)
REMARK    1  A    between atoms: C_2  and  O_4 
REMARK    2  A    between atoms: O_4  and  C_5 
REMARK    3  A    between atoms: C_5  and  C_7 
REMARK    4  A    between atoms: C_10  and  O_13 
ROOT
HETATM    1  C   UNL     1     -23.772  -3.911 -11.737  1.00  0.00     0.039 A 
HETATM    2  C   UNL     1     -23.562  -2.694 -12.405  1.00  0.00     0.020 A 
HETATM    3  C   UNL     1     -22.989  -2.675 -13.679  1.00  0.00     0.037 A 
HETATM    4  C   UNL     1     -22.631  -3.877 -14.283  1.00  0.00     0.065 A 
HETATM    5  C   UNL     1     -22.858  -5.092 -13.648  1.00  0.00     0.037 A 
HETATM    6  C   UNL     1     -23.430  -5.113 -12.373  1.00  0.00     0.020 A 
ENDROOT
BRANCH   1   7
HETATM    7  C   UNL     1     -24.328  -3.870 -10.358  1.00  0.00     0.293 C 
HETATM    8  O   UNL     1     -25.321  -3.226 -10.053  1.00  0.00    -0.259 OA
BRANCH   7   9
HETATM    9  O   UNL     1     -23.575  -4.620  -9.516  1.00  0.00    -0.313 OA
BRANCH   9  10
HETATM   10  C   UNL     1     -22.571  -3.914  -8.762  1.00  0.00     0.124 C 
HETATM   11  C   UNL     1     -22.589  -4.384  -7.311  1.00  0.00     0.040 C 
HETATM   12  C   UNL     1     -21.222  -4.215  -9.403  1.00  0.00     0.040 C 
ENDBRANCH   9  10
ENDBRANCH   7   9
ENDBRANCH   1   7
BRANCH   4  13
HETATM   13  O   UNL     1     -22.038  -3.907 -15.510  1.00  0.00    -0.361 OA
HETATM   14  H   UNL     1     -22.036  -4.823 -15.834  1.00  0.00     0.217 HD
ENDBRANCH   4  13
TORSDOF 4
BEGIN_RES ARG D 557
REMARK  4 active torsions:
REMARK  status: ('A' for Active; 'I' for Inactive)
REMARK    1  A    between atoms: CA   and  CB  
REMARK    2  A    between atoms: CB   and  CG  
REMARK    3  A    between atoms: CG   and  CD  
REMARK    4  A    between atoms: CD   and  NE  
REMARK       I    between atoms: NE   and  CZ  
REMARK       I    between atoms: CZ   and  NH1 
REMARK       I    between atoms: CZ   and  NH2 
ROOT
ATOM      1  CA  ARG D 557     -26.217   2.705 -17.014  1.00 35.49     0.159 C 
ENDROOT
BRANCH   1   2
ATOM      2  CB  ARG D 557     -26.789   1.319 -17.183  1.00 35.49     0.034 C 
BRANCH   2   3
ATOM      3  CG  ARG D 557     -28.231   1.226 -17.441  1.00 35.49     0.027 C 
BRANCH   3   4
ATOM      4  CD  ARG D 557     -28.914   0.305 -16.505  1.00 35.49     0.116 C 
BRANCH   4   5
ATOM      5  NE  ARG D 557     -29.284  -0.934 -17.136  1.00 35.49    -0.212 N 
ATOM      6  CZ  ARG D 557     -28.642  -2.075 -17.024  1.00 35.49     0.666 C 
ATOM      7  NH1 ARG D 557     -27.542  -2.202 -16.305  1.00 35.49    -0.235 N 
ATOM      8  NH2 ARG D 557     -29.134  -3.105 -17.651  1.00 35.49    -0.235 N 
ATOM      9  HH  ARG D 557     -27.202  -1.539 -15.883  1.00 35.49     0.174 HD
ATOM     10  HH  ARG D 557     -27.168  -2.972 -16.267  1.00 35.49     0.174 HD
ATOM     11  HH  ARG D 557     -29.849  -2.995 -18.101  1.00 35.49     0.174 HD
ATOM     12  HH  ARG D 557     -28.749  -3.859 -17.599  1.00 35.49     0.174 HD
ATOM     13  HE  ARG D 557     -29.941  -0.926 -17.677  1.00 35.49     0.178 HD
ENDBRANCH   4   5
ENDBRANCH   3   4
ENDBRANCH   2   3
ENDBRANCH   1   2
END_RES ARG D 557
BEGIN_RES GLU D 570
REMARK  3 active torsions:
REMARK  status: ('A' for Active; 'I' for Inactive)
REMARK    5  A    between atoms: CA   and  CB  
REMARK    6  A    between atoms: CB   and  CG  
REMARK    7  A    between atoms: CG   and  CD  
ROOT
ATOM     14  CA  GLU D 570     -18.033  -6.348 -13.375  1.00 32.92     0.160 C 
ENDROOT
BRANCH  14  15
ATOM     15  CB  GLU D 570     -19.500  -6.345 -13.794  1.00 32.92     0.043 C 
BRANCH  15  16
ATOM     16  CG  GLU D 570     -20.086  -7.634 -14.243  1.00 32.92     0.100 C 
BRANCH  16  17
ATOM     17  CD  GLU D 570     -20.678  -7.561 -15.632  1.00 32.92     0.185 C 
ATOM     18  OE1 GLU D 570     -21.125  -8.599 -16.155  1.00 32.92    -0.647 OA
ATOM     19  OE2 GLU D 570     -20.678  -6.456 -16.209  1.00 32.92    -0.647 OA
ENDBRANCH  16  17
ENDBRANCH  15  16
ENDBRANCH  14  15
END_RES GLU D 570
ENDMDL
MODEL 2
REMARK VINA RESULT:      -6.7      1.708      3.810
REMARK  4 active torsions:
REMARK  status: ('A' for Active; 'I' for Inactive)
REMARK    1  A    between atoms: C_2  and  O_4 
REMARK    2  A    between atoms: O_4  and  C_5 
REMARK    3  A    between atoms: C_5  and  C_7 
REMARK    4  A    between atoms: C_10  and  O_13 
ROOT
HETATM    1  C   UNL     1     -22.938  -3.687 -10.587  1.00  0.00     0.039 A 
HETATM    2  C   UNL     1     -22.976  -3.733  -9.184  1.00  0.00     0.020 A 
HETATM    3  C   UNL     1     -21.815  -3.993  -8.451  1.00  0.00     0.037 A 
HETATM    4  C   UNL     1     -20.617  -4.203  -9.127  1.00  0.00     0.065 A 
HETATM    5  C   UNL     1     -20.555  -4.132 -10.514  1.00  0.00     0.037 A 
HETATM    6  C   UNL     1     -21.715  -3.874 -11.248  1.00  0.00     0.020 A 
ENDROOT
BRANCH   1   7
HETATM    7  C   UNL     1     -24.214  -3.468 -11.319  1.00  0.00     0.293 C 
HETATM    8  O   UNL     1     -25.258  -3.153 -10.769  1.00  0.00    -0.259 OA
BRANCH   7   9
HETATM    9  O   UNL     1     -24.046  -3.684 -12.648  1.00  0.00    -0.313 OA
BRANCH   9  10
HETATM   10  C   UNL     1     -24.293  -2.557 -13.510  1.00  0.00     0.124 C 
HETATM   11  C   UNL     1     -23.164  -2.427 -14.528  1.00  0.00     0.040 C 
HETATM   12  C   UNL     1     -25.621  -2.807 -14.218  1.00  0.00     0.040 C 
ENDBRANCH   9  10
ENDBRANCH   7   9
ENDBRANCH   1   7
BRANCH   4  13
HETATM   13  O   UNL     1     -19.465  -4.493  -8.457  1.00  0.00    -0.361 OA
HETATM   14  H   UNL     1     -19.075  -5.296  -8.840  1.00  0.00     0.217 HD
ENDBRANCH   4  13
TORSDOF 4
BEGIN_RES ARG D 557
REMARK  4 active torsions:
REMARK  status: ('A' for Active; 'I' for Inactive)
REMARK    1  A    between atoms: CA   and  CB  
REMARK    2  A    between atoms: CB   and  CG  
REMARK    3  A    between atoms: CG   and  CD  
REMARK    4  A    between atoms: CD   and  NE  
REMARK       I    between atoms: NE   and  CZ  
REMARK       I    between atoms: CZ   and  NH1 
REMARK       I    between atoms: CZ   and  NH2 
ROOT
ATOM      1  CA  ARG D 557     -26.217   2.705 -17.014  1.00 35.49     0.159 C 
ENDROOT
BRANCH   1   2
ATOM      2  CB  ARG D 557     -26.789   1.319 -17.183  1.00 35.49     0.034 C 
BRANCH   2   3
ATOM      3  CG  ARG D 557     -28.135   1.090 -16.644  1.00 35.49     0.027 C 
BRANCH   3   4
ATOM      4  CD  ARG D 557     -28.809  -0.065 -17.282  1.00 35.49     0.116 C 
BRANCH   4   5
ATOM      5  NE  ARG D 557     -28.222  -1.319 -16.892  1.00 35.49    -0.212 N 
ATOM      6  CZ  ARG D 557     -28.749  -2.507 -17.084  1.00 35.49     0.666 C 
ATOM      7  NH1 ARG D 557     -29.923  -2.676 -17.664  1.00 35.49    -0.235 N 
ATOM      8  NH2 ARG D 557     -28.066  -3.540 -16.684  1.00 35.49    -0.235 N 
ATOM      9  HH  ARG D 557     -30.389  -2.011 -17.938  1.00 35.49     0.174 HD
ATOM     10  HH  ARG D 557     -30.216  -3.475 -17.766  1.00 35.49     0.174 HD
ATOM     11  HH  ARG D 557     -27.307  -3.401 -16.319  1.00 35.49     0.174 HD
ATOM     12  HH  ARG D 557     -28.372  -4.323 -16.794  1.00 35.49     0.174 HD
ATOM     13  HE  ARG D 557     -27.498  -1.299 -16.446  1.00 35.49     0.178 HD
ENDBRANCH   4   5
ENDBRANCH   3   4
ENDBRANCH   2   3
ENDBRANCH   1   2
END_RES ARG D 557
BEGIN_RES GLU D 570
REMARK  3 active torsions:
REMARK  status: ('A' for Active; 'I' for Inactive)
REMARK    5  A    between atoms: CA   and  CB  
REMARK    6  A    between atoms: CB   and  CG  
REMARK    7  A    between atoms: CG   and  CD  
ROOT
ATOM     14  CA  GLU D 570     -18.033  -6.348 -13.375  1.00 32.92     0.160 C 
ENDROOT
BRANCH  14  15
ATOM     15  CB  GLU D 570     -19.500  -6.345 -13.794  1.00 32.92     0.043 C 
BRANCH  15  16
ATOM     16  CG  GLU D 570     -19.809  -5.984 -15.202  1.00 32.92     0.100 C 
BRANCH  16  17
ATOM     17  CD  GLU D 570     -21.248  -5.567 -15.401  1.00 32.92     0.185 C 
ATOM     18  OE1 GLU D 570     -21.569  -4.988 -16.456  1.00 32.92    -0.647 OA
ATOM     19  OE2 GLU D 570     -22.058  -5.807 -14.485  1.00 32.92    -0.647 OA
ENDBRANCH  16  17
ENDBRANCH  15  16
ENDBRANCH  14  15
END_RES GLU D 570
ENDMDL
MODEL 3
REMARK VINA RESULT:      -6.6      2.650      3.606
REMARK  4 active torsions:
REMARK  status: ('A' for Active; 'I' for Inactive)
REMARK    1  A    between atoms: C_2  and  O_4 
REMARK    2  A    between atoms: O_4  and  C_5 
REMARK    3  A    between atoms: C_5  and  C_7 
REMARK    4  A    between atoms: C_10  and  O_13 
ROOT
HETATM    1  C   UNL     1     -22.195  -4.527  -9.230  1.00  0.00     0.039 A 
HETATM    2  C   UNL     1     -23.255  -4.790 -10.112  1.00  0.00     0.020 A 
HETATM    3  C   UNL     1     -23.130  -4.509 -11.474  1.00  0.00     0.037 A 
HETATM    4  C   UNL     1     -21.940  -3.968 -11.952  1.00  0.00     0.065 A 
HETATM    5  C   UNL     1     -20.870  -3.729 -11.097  1.00  0.00     0.037 A 
HETATM    6  C   UNL     1     -20.994  -4.008  -9.734  1.00  0.00     0.020 A 
ENDROOT
BRANCH   1   7
HETATM    7  C   UNL     1     -22.403  -4.788  -7.781  1.00  0.00     0.293 C 
HETATM    8  O   UNL     1     -23.387  -4.406  -7.164  1.00  0.00    -0.259 OA
BRANCH   7   9
HETATM    9  O   UNL     1     -21.356  -5.478  -7.263  1.00  0.00    -0.313 OA
BRANCH   9  10
HETATM   10  C   UNL     1     -20.707  -4.884  -6.122  1.00  0.00     0.124 C 
HETATM   11  C   UNL     1     -20.849  -5.801  -4.911  1.00  0.00     0.040 C 
HETATM   12  C   UNL     1     -19.236  -4.699  -6.479  1.00  0.00     0.040 C 
ENDBRANCH   9  10
ENDBRANCH   7   9
ENDBRANCH   1   7
BRANCH   4  13
HETATM   13  O   UNL     1     -21.783  -3.645 -13.267  1.00  0.00    -0.361 OA
HETATM   14  H   UNL     1     -22.291  -4.275 -13.806  1.00  0.00     0.217 HD
ENDBRANCH   4  13
TORSDOF 4
BEGIN_RES ARG D 557
REMARK  4 active torsions:
REMARK  status: ('A' for Active; 'I' for Inactive)
REMARK    1  A    between atoms: CA   and  CB  
REMARK    2  A    between atoms: CB   and  CG  
REMARK    3  A    between atoms: CG   and  CD  
REMARK    4  A    between atoms: CD   and  NE  
REMARK       I    between atoms: NE   and  CZ  
REMARK       I    between atoms: CZ   and  NH1 
REMARK       I    between atoms: CZ   and  NH2 
ROOT
ATOM      1  CA  ARG D 557     -26.217   2.705 -17.014  1.00 35.49     0.159 C 
ENDROOT
BRANCH   1   2
ATOM      2  CB  ARG D 557     -26.789   1.319 -17.183  1.00 35.49     0.034 C 
BRANCH   2   3
ATOM      3  CG  ARG D 557     -25.832   0.206 -17.195  1.00 35.49     0.027 C 
BRANCH   3   4
ATOM      4  CD  ARG D 557     -24.734   0.396 -16.219  1.00 35.49     0.116 C 
BRANCH   4   5
ATOM      5  NE  ARG D 557     -24.897  -0.429 -15.052  1.00 35.49    -0.212 N 
ATOM      6  CZ  ARG D 557     -24.102  -1.411 -14.688  1.00 35.49     0.666 C 
ATOM      7  NH1 ARG D 557     -23.042  -1.763 -15.391  1.00 35.49    -0.235 N 
ATOM      8  NH2 ARG D 557     -24.391  -2.040 -13.586  1.00 35.49    -0.235 N 
ATOM      9  HH  ARG D 557     -22.832  -1.361 -16.119  1.00 35.49     0.174 HD
ATOM     10  HH  ARG D 557     -22.559  -2.409 -15.104  1.00 35.49     0.174 HD
ATOM     11  HH  ARG D 557     -25.078  -1.786 -13.148  1.00 35.49     0.174 HD
ATOM     12  HH  ARG D 557     -23.900  -2.676 -13.317  1.00 35.49     0.174 HD
ATOM     13  HE  ARG D 557     -25.595  -0.319 -14.579  1.00 35.49     0.178 HD
ENDBRANCH   4   5
ENDBRANCH   3   4
ENDBRANCH   2   3
ENDBRANCH   1   2
END_RES ARG D 557
BEGIN_RES GLU D 570
REMARK  3 active torsions:
REMARK  status: ('A' for Active; 'I' for Inactive)
REMARK    5  A    between atoms: CA   and  CB  
REMARK    6  A    between atoms: CB   and  CG  
REMARK    7  A    between atoms: CG   and  CD  
ROOT
ATOM     14  CA  GLU D 570     -18.033  -6.348 -13.375  1.00 32.92     0.160 C 
ENDROOT
BRANCH  14  15
ATOM     15  CB  GLU D 570     -19.500  -6.345 -13.794  1.00 32.92     0.043 C 
BRANCH  15  16
ATOM     16  CG  GLU D 570     -19.813  -5.934 -15.187  1.00 32.92     0.100 C 
BRANCH  16  17
ATOM     17  CD  GLU D 570     -21.276  -5.619 -15.394  1.00 32.92     0.185 C 
ATOM     18  OE1 GLU D 570     -21.591  -4.650 -16.111  1.00 32.92    -0.647 OA
ATOM     19  OE2 GLU D 570     -22.116  -6.340 -14.819  1.00 32.92    -0.647 OA
ENDBRANCH  16  17
ENDBRANCH  15  16
ENDBRANCH  14  15
END_RES GLU D 570
ENDMDL
MODEL 4
REMARK VINA RESULT:      -6.6      3.039      4.790
REMARK  4 active torsions:
REMARK  status: ('A' for Active; 'I' for Inactive)
REMARK    1  A    between atoms: C_2  and  O_4 
REMARK    2  A    between atoms: O_4  and  C_5 
REMARK    3  A    between atoms: C_5  and  C_7 
REMARK    4  A    between atoms: C_10  and  O_13 
ROOT
HETATM    1  C   UNL     1     -21.531  -4.485  -7.399  1.00  0.00     0.039 A 
HETATM    2  C   UNL     1     -20.740  -4.271  -8.539  1.00  0.00     0.020 A 
HETATM    3  C   UNL     1     -21.332  -3.959  -9.765  1.00  0.00     0.037 A 
HETATM    4  C   UNL     1     -22.718  -3.858  -9.845  1.00  0.00     0.065 A 
HETATM    5  C   UNL     1     -23.515  -4.038  -8.721  1.00  0.00     0.037 A 
HETATM    6  C   UNL     1     -22.924  -4.352  -7.495  1.00  0.00     0.020 A 
ENDROOT
BRANCH   1   7
HETATM    7  C   UNL     1     -20.853  -4.875  -6.134  1.00  0.00     0.293 C 
HETATM    8  O   UNL     1     -19.667  -4.675  -5.918  1.00  0.00    -0.259 OA
BRANCH   7   9
HETATM    9  O   UNL     1     -21.725  -5.485  -5.293  1.00  0.00    -0.313 OA
BRANCH   9  10
HETATM   10  C   UNL     1     -21.169  -6.486  -4.419  1.00  0.00     0.124 C 
HETATM   11  C   UNL     1     -21.747  -6.327  -3.016  1.00  0.00     0.040 C 
HETATM   12  C   UNL     1     -21.536  -7.849  -4.994  1.00  0.00     0.040 C 
ENDBRANCH   9  10
ENDBRANCH   7   9
ENDBRANCH   1   7
BRANCH   4  13
HETATM   13  O   UNL     1     -23.344  -3.589 -11.027  1.00  0.00    -0.361 OA
HETATM   14  H   UNL     1     -22.672  -3.371 -11.694  1.00  0.00     0.217 HD
ENDBRANCH   4  13
TORSDOF 4
BEGIN_RES ARG D 557
REMARK  4 active torsions:
REMARK  status: ('A' for Active; 'I' for Inactive)
REMARK    1  A    between atoms: CA   and  CB  
REMARK    2  A    between atoms: CB   and  CG  
REMARK    3  A    between atoms: CG   and  CD  
REMARK    4  A    between atoms: CD   and  NE  
REMARK       I    between atoms: NE   and  CZ  
REMARK       I    between atoms: CZ   and  NH1 
REMARK       I    between atoms: CZ   and  NH2 
ROOT
ATOM      1  CA  ARG D 557     -26.217   2.705 -17.014  1.00 35.49     0.159 C 
ENDROOT
BRANCH   1   2
ATOM      2  CB  ARG D 557     -26.789   1.319 -17.183  1.00 35.49     0.034 C 
BRANCH   2   3
ATOM      3  CG  ARG D 557     -25.837   0.202 -17.144  1.00 35.49     0.027 C 
BRANCH   3   4
ATOM      4  CD  ARG D 557     -24.754   0.418 -16.158  1.00 35.49     0.116 C 
BRANCH   4   5
ATOM      5  NE  ARG D 557     -24.892  -0.434 -15.006  1.00 35.49    -0.212 N 
ATOM      6  CZ  ARG D 557     -24.075  -1.406 -14.666  1.00 35.49     0.666 C 
ATOM      7  NH1 ARG D 557     -23.012  -1.721 -15.383  1.00 35.49    -0.235 N 
ATOM      8  NH2 ARG D 557     -24.344  -2.062 -13.575  1.00 35.49    -0.235 N 
ATOM      9  HH  ARG D 557     -22.815  -1.301 -16.103  1.00 35.49     0.174 HD
ATOM     10  HH  ARG D 557     -22.514  -2.363 -15.111  1.00 35.49     0.174 HD
ATOM     11  HH  ARG D 557     -25.033  -1.832 -13.129  1.00 35.49     0.174 HD
ATOM     12  HH  ARG D 557     -23.838  -2.693 -13.322  1.00 35.49     0.174 HD
ATOM     13  HE  ARG D 557     -25.590  -0.348 -14.527  1.00 35.49     0.178 HD
ENDBRANCH   4   5
ENDBRANCH   3   4
ENDBRANCH   2   3
ENDBRANCH   1   2
END_RES ARG D 557
BEGIN_RES GLU D 570
REMARK  3 active torsions:
REMARK  status: ('A' for Active; 'I' for Inactive)
REMARK    5  A    between atoms: CA   and  CB  
REMARK    6  A    between atoms: CB   and  CG  
REMARK    7  A    between atoms: CG   and  CD  
ROOT
ATOM     14  CA  GLU D 570     -18.033  -6.348 -13.375  1.00 32.92     0.160 C 
ENDROOT
BRANCH  14  15
ATOM     15  CB  GLU D 570     -19.500  -6.345 -13.794  1.00 32.92     0.043 C 
BRANCH  15  16
ATOM     16  CG  GLU D 570     -20.444  -5.541 -12.976  1.00 32.92     0.100 C 
BRANCH  16  17
ATOM     17  CD  GLU D 570     -21.741  -5.246 -13.692  1.00 32.92     0.185 C 
ATOM     18  OE1 GLU D 570     -22.266  -6.139 -14.385  1.00 32.92    -0.647 OA
ATOM     19  OE2 GLU D 570     -22.229  -4.105 -13.572  1.00 32.92    -0.647 OA
ENDBRANCH  16  17
ENDBRANCH  15  16
ENDBRANCH  14  15
END_RES GLU D 570
ENDMDL
MODEL 5
REMARK VINA RESULT:      -6.4      1.818      2.653
REMARK  4 active torsions:
REMARK  status: ('A' for Active; 'I' for Inactive)
REMARK    1  A    between atoms: C_2  and  O_4 
REMARK    2  A    between atoms: O_4  and  C_5 
REMARK    3  A    between atoms: C_5  and  C_7 
REMARK    4  A    between atoms: C_10  and  O_13 
ROOT
HETATM    1  C   UNL     1     -22.305  -3.835  -9.462  1.00  0.00     0.039 A 
HETATM    2  C   UNL     1     -23.499  -3.411 -10.068  1.00  0.00     0.020 A 
HETATM    3  C   UNL     1     -23.544  -3.150 -11.440  1.00  0.00     0.037 A 
HETATM    4  C   UNL     1     -22.393  -3.319 -12.203  1.00  0.00     0.065 A 
HETATM    5  C   UNL     1     -21.210  -3.766 -11.625  1.00  0.00     0.037 A 
HETATM    6  C   UNL     1     -21.163  -4.025 -10.253  1.00  0.00     0.020 A 
ENDROOT
BRANCH   1   7
HETATM    7  C   UNL     1     -22.297  -4.038  -7.989  1.00  0.00     0.293 C 
HETATM    8  O   UNL     1     -23.255  -4.469  -7.365  1.00  0.00    -0.259 OA
BRANCH   7   9
HETATM    9  O   UNL     1     -21.104  -3.665  -7.461  1.00  0.00    -0.313 OA
BRANCH   9  10
HETATM   10  C   UNL     1     -20.258  -4.730  -6.988  1.00  0.00     0.124 C 
HETATM   11  C   UNL     1     -18.828  -4.509  -7.473  1.00  0.00     0.040 C 
HETATM   12  C   UNL     1     -20.311  -4.714  -5.465  1.00  0.00     0.040 C 
ENDBRANCH   9  10
ENDBRANCH   7   9
ENDBRANCH   1   7
BRANCH   4  13
HETATM   13  O   UNL     1     -22.379  -3.045 -13.539  1.00  0.00    -0.361 OA
HETATM   14  H   UNL     1     -21.606  -2.490 -13.736  1.00  0.00     0.217 HD
ENDBRANCH   4  13
TORSDOF 4
BEGIN_RES ARG D 557
REMARK  4 active torsions:
REMARK  status: ('A' for Active; 'I' for Inactive)
REMARK    1  A    between atoms: CA   and  CB  
REMARK    2  A    between atoms: CB   and  CG  
REMARK    3  A    between atoms: CG   and  CD  
REMARK    4  A    between atoms: CD   and  NE  
REMARK       I    between atoms: NE   and  CZ  
REMARK       I    between atoms: CZ   and  NH1 
REMARK       I    between atoms: CZ   and  NH2 
ROOT
ATOM      1  CA  ARG D 557     -26.217   2.705 -17.014  1.00 35.49     0.159 C 
ENDROOT
BRANCH   1   2
ATOM      2  CB  ARG D 557     -26.789   1.319 -17.183  1.00 35.49     0.034 C 
BRANCH   2   3
ATOM      3  CG  ARG D 557     -28.223   1.158 -16.912  1.00 35.49     0.027 C 
BRANCH   3   4
ATOM      4  CD  ARG D 557     -28.608  -0.260 -16.732  1.00 35.49     0.116 C 
BRANCH   4   5
ATOM      5  NE  ARG D 557     -27.606  -1.007 -16.019  1.00 35.49    -0.212 N 
ATOM      6  CZ  ARG D 557     -27.423  -2.307 -16.087  1.00 35.49     0.666 C 
ATOM      7  NH1 ARG D 557     -28.177  -3.091 -16.836  1.00 35.49    -0.235 N 
ATOM      8  NH2 ARG D 557     -26.450  -2.814 -15.387  1.00 35.49    -0.235 N 
ATOM      9  HH  ARG D 557     -28.821  -2.778 -17.307  1.00 35.49     0.174 HD
ATOM     10  HH  ARG D 557     -28.009  -3.931 -16.843  1.00 35.49     0.174 HD
ATOM     11  HH  ARG D 557     -25.975  -2.283 -14.919  1.00 35.49     0.174 HD
ATOM     12  HH  ARG D 557     -26.299  -3.648 -15.409  1.00 35.49     0.174 HD
ATOM     13  HE  ARG D 557     -27.122  -0.591 -15.457  1.00 35.49     0.178 HD
ENDBRANCH   4   5
ENDBRANCH   3   4
ENDBRANCH   2   3
ENDBRANCH   1   2
END_RES ARG D 557
BEGIN_RES GLU D 570
REMARK  3 active torsions:
REMARK  status: ('A' for Active; 'I' for Inactive)
REMARK    5  A    between atoms: CA   and  CB  
REMARK    6  A    between atoms: CB   and  CG  
REMARK    7  A    between atoms: CG   and  CD  
ROOT
ATOM     14  CA  GLU D 570     -18.033  -6.348 -13.375  1.00 32.92     0.160 C 
ENDROOT
BRANCH  14  15
ATOM     15  CB  GLU D 570     -19.500  -6.345 -13.794  1.00 32.92     0.043 C 
BRANCH  15  16
ATOM     16  CG  GLU D 570     -19.816  -5.900 -15.176  1.00 32.92     0.100 C 
BRANCH  16  17
ATOM     17  CD  GLU D 570     -21.292  -5.658 -15.394  1.00 32.92     0.185 C 
ATOM     18  OE1 GLU D 570     -22.111  -6.504 -14.985  1.00 32.92    -0.647 OA
ATOM     19  OE2 GLU D 570     -21.631  -4.620 -15.995  1.00 32.92    -0.647 OA
ENDBRANCH  16  17
ENDBRANCH  15  16
ENDBRANCH  14  15
END_RES GLU D 570
ENDMDL
MODEL 6
REMARK VINA RESULT:      -6.0      4.714      7.907
REMARK  4 active torsions:
REMARK  status: ('A' for Active; 'I' for Inactive)
REMARK    1  A    between atoms: C_2  and  O_4 
REMARK    2  A    between atoms: O_4  and  C_5 
REMARK    3  A    between atoms: C_5  and  C_7 
REMARK    4  A    between atoms: C_10  and  O_13 
ROOT
HETATM    1  C   UNL     1     -21.662  -7.381  -3.676  1.00  0.00     0.039 A 
HETATM    2  C   UNL     1     -21.407  -8.618  -3.063  1.00  0.00     0.020 A 
HETATM    3  C   UNL     1     -21.506  -8.756  -1.676  1.00  0.00     0.037 A 
HETATM    4  C   UNL     1     -21.863  -7.653  -0.907  1.00  0.00     0.065 A 
HETATM    5  C   UNL     1     -22.147  -6.428  -1.500  1.00  0.00     0.037 A 
HETATM    6  C   UNL     1     -22.047  -6.289  -2.886  1.00  0.00     0.020 A 
ENDROOT
BRANCH   1   7
HETATM    7  C   UNL     1     -21.482  -7.275  -5.149  1.00  0.00     0.293 C 
HETATM    8  O   UNL     1     -20.927  -8.131  -5.821  1.00  0.00    -0.259 OA
BRANCH   7   9
HETATM    9  O   UNL     1     -21.998  -6.109  -5.611  1.00  0.00    -0.313 OA
BRANCH   9  10
HETATM   10  C   UNL     1     -21.179  -5.377  -6.543  1.00  0.00     0.124 C 
HETATM   11  C   UNL     1     -22.021  -4.325  -7.257  1.00  0.00     0.040 C 
HETATM   12  C   UNL     1     -20.062  -4.713  -5.745  1.00  0.00     0.040 C 
ENDBRANCH   9  10
ENDBRANCH   7   9
ENDBRANCH   1   7
BRANCH   4  13
HETATM   13  O   UNL     1     -21.939  -7.729   0.453  1.00  0.00    -0.361 OA
HETATM   14  H   UNL     1     -21.857  -8.661   0.718  1.00  0.00     0.217 HD
ENDBRANCH   4  13
TORSDOF 4
BEGIN_RES ARG D 557
REMARK  4 active torsions:
REMARK  status: ('A' for Active; 'I' for Inactive)
REMARK    1  A    between atoms: CA   and  CB  
REMARK    2  A    between atoms: CB   and  CG  
REMARK    3  A    between atoms: CG   and  CD  
REMARK    4  A    between atoms: CD   and  NE  
REMARK       I    between atoms: NE   and  CZ  
REMARK       I    between atoms: CZ   and  NH1 
REMARK       I    between atoms: CZ   and  NH2 
ROOT
ATOM      1  CA  ARG D 557     -26.217   2.705 -17.014  1.00 35.49     0.159 C 
ENDROOT
BRANCH   1   2
ATOM      2  CB  ARG D 557     -26.789   1.319 -17.183  1.00 35.49     0.034 C 
BRANCH   2   3
ATOM      3  CG  ARG D 557     -25.835   0.204 -17.162  1.00 35.49     0.027 C 
BRANCH   3   4
ATOM      4  CD  ARG D 557     -24.747   0.409 -16.179  1.00 35.49     0.116 C 
BRANCH   4   5
ATOM      5  NE  ARG D 557     -24.895  -0.434 -15.022  1.00 35.49    -0.212 N 
ATOM      6  CZ  ARG D 557     -24.083  -1.406 -14.672  1.00 35.49     0.666 C 
ATOM      7  NH1 ARG D 557     -23.017  -1.730 -15.379  1.00 35.49    -0.235 N 
ATOM      8  NH2 ARG D 557     -24.360  -2.054 -13.578  1.00 35.49    -0.235 N 
ATOM      9  HH  ARG D 557     -22.814  -1.315 -16.101  1.00 35.49     0.174 HD
ATOM     10  HH  ARG D 557     -22.522  -2.371 -15.100  1.00 35.49     0.174 HD
ATOM     11  HH  ARG D 557     -25.052  -1.819 -13.137  1.00 35.49     0.174 HD
ATOM     12  HH  ARG D 557     -23.858  -2.686 -13.317  1.00 35.49     0.174 HD
ATOM     13  HE  ARG D 557     -25.595  -0.342 -14.548  1.00 35.49     0.178 HD
ENDBRANCH   4   5
ENDBRANCH   3   4
ENDBRANCH   2   3
ENDBRANCH   1   2
END_RES ARG D 557
BEGIN_RES GLU D 570
REMARK  3 active torsions:
REMARK  status: ('A' for Active; 'I' for Inactive)
REMARK    5  A    between atoms: CA   and  CB  
REMARK    6  A    between atoms: CB   and  CG  
REMARK    7  A    between atoms: CG   and  CD  
ROOT
ATOM     14  CA  GLU D 570     -18.033  -6.348 -13.375  1.00 32.92     0.160 C 
ENDROOT
BRANCH  14  15
ATOM     15  CB  GLU D 570     -19.500  -6.345 -13.794  1.00 32.92     0.043 C 
BRANCH  15  16
ATOM     16  CG  GLU D 570     -20.446  -5.550 -12.969  1.00 32.92     0.100 C 
BRANCH  16  17
ATOM     17  CD  GLU D 570     -21.738  -5.239 -13.689  1.00 32.92     0.185 C 
ATOM     18  OE1 GLU D 570     -22.268  -4.124 -13.526  1.00 32.92    -0.647 OA
ATOM     19  OE2 GLU D 570     -22.233  -6.127 -14.410  1.00 32.92    -0.647 OA
ENDBRANCH  16  17
ENDBRANCH  15  16
ENDBRANCH  14  15
END_RES GLU D 570
ENDMDL
MODEL 7
REMARK VINA RESULT:      -6.0      7.398     10.076
REMARK  4 active torsions:
REMARK  status: ('A' for Active; 'I' for Inactive)
REMARK    1  A    between atoms: C_2  and  O_4 
REMARK    2  A    between atoms: O_4  and  C_5 
REMARK    3  A    between atoms: C_5  and  C_7 
REMARK    4  A    between atoms: C_10  and  O_13 
ROOT
HETATM    1  C   UNL     1     -21.483  -9.282  -0.264  1.00  0.00     0.039 A 
HETATM    2  C   UNL     1     -22.309  -8.349   0.382  1.00  0.00     0.020 A 
HETATM    3  C   UNL     1     -22.621  -7.134  -0.233  1.00  0.00     0.037 A 
HETATM    4  C   UNL     1     -22.107  -6.859  -1.497  1.00  0.00     0.065 A 
HETATM    5  C   UNL     1     -21.311  -7.784  -2.163  1.00  0.00     0.037 A 
HETATM    6  C   UNL     1     -20.997  -8.998  -1.548  1.00  0.00     0.020 A 
ENDROOT
BRANCH   1   7
HETATM    7  C   UNL     1     -21.132 -10.533   0.461  1.00  0.00     0.293 C 
HETATM    8  O   UNL     1     -20.367 -10.565   1.414  1.00  0.00    -0.259 OA
BRANCH   7   9
HETATM    9  O   UNL     1     -21.759 -11.600  -0.093  1.00  0.00    -0.313 OA
BRANCH   9  10
HETATM   10  C   UNL     1     -23.137 -11.791   0.279  1.00  0.00     0.124 C 
HETATM   11  C   UNL     1     -24.003 -11.888  -0.973  1.00  0.00     0.040 C 
HETATM   12  C   UNL     1     -23.217 -13.084   1.083  1.00  0.00     0.040 C 
ENDBRANCH   9  10
ENDBRANCH   7   9
ENDBRANCH   1   7
BRANCH   4  13
HETATM   13  O   UNL     1     -22.357  -5.673  -2.123  1.00  0.00    -0.361 OA
HETATM   14  H   UNL     1     -23.318  -5.564  -2.214  1.00  0.00     0.217 HD
ENDBRANCH   4  13
TORSDOF 4
BEGIN_RES ARG D 557
REMARK  4 active torsions:
REMARK  status: ('A' for Active; 'I' for Inactive)
REMARK    1  A    between atoms: CA   and  CB  
REMARK    2  A    between atoms: CB   and  CG  
REMARK    3  A    between atoms: CG   and  CD  
REMARK    4  A    between atoms: CD   and  NE  
REMARK       I    between atoms: NE   and  CZ  
REMARK       I    between atoms: CZ   and  NH1 
REMARK       I    between atoms: CZ   and  NH2 
ROOT
ATOM      1  CA  ARG D 557     -26.217   2.705 -17.014  1.00 35.49     0.159 C 
ENDROOT
BRANCH   1   2
ATOM      2  CB  ARG D 557     -26.789   1.319 -17.183  1.00 35.49     0.034 C 
BRANCH   2   3
ATOM      3  CG  ARG D 557     -25.836   0.203 -17.152  1.00 35.49     0.027 C 
BRANCH   3   4
ATOM      4  CD  ARG D 557     -24.754   0.412 -16.163  1.00 35.49     0.116 C 
BRANCH   4   5
ATOM      5  NE  ARG D 557     -24.899  -0.441 -15.013  1.00 35.49    -0.212 N 
ATOM      6  CZ  ARG D 557     -24.080  -1.409 -14.667  1.00 35.49     0.666 C 
ATOM      7  NH1 ARG D 557     -23.008  -1.719 -15.374  1.00 35.49    -0.235 N 
ATOM      8  NH2 ARG D 557     -24.355  -2.068 -13.579  1.00 35.49    -0.235 N 
ATOM      9  HH  ARG D 557     -22.807  -1.297 -16.092  1.00 35.49     0.174 HD
ATOM     10  HH  ARG D 557     -22.509  -2.358 -15.098  1.00 35.49     0.174 HD
ATOM     11  HH  ARG D 557     -25.049  -1.841 -13.138  1.00 35.49     0.174 HD
ATOM     12  HH  ARG D 557     -23.848  -2.697 -13.321  1.00 35.49     0.174 HD
ATOM     13  HE  ARG D 557     -25.601  -0.359 -14.541  1.00 35.49     0.178 HD
ENDBRANCH   4   5
ENDBRANCH   3   4
ENDBRANCH   2   3
ENDBRANCH   1   2
END_RES ARG D 557
BEGIN_RES GLU D 570
REMARK  3 active torsions:
REMARK  status: ('A' for Active; 'I' for Inactive)
REMARK    5  A    between atoms: CA   and  CB  
REMARK    6  A    between atoms: CB   and  CG  
REMARK    7  A    between atoms: CG   and  CD  
ROOT
ATOM     14  CA  GLU D 570     -18.033  -6.348 -13.375  1.00 32.92     0.160 C 
ENDROOT
BRANCH  14  15
ATOM     15  CB  GLU D 570     -19.500  -6.345 -13.794  1.00 32.92     0.043 C 
BRANCH  15  16
ATOM     16  CG  GLU D 570     -20.440  -5.522 -12.990  1.00 32.92     0.100 C 
BRANCH  16  17
ATOM     17  CD  GLU D 570     -21.745  -5.252 -13.702  1.00 32.92     0.185 C 
ATOM     18  OE1 GLU D 570     -22.229  -6.137 -14.434  1.00 32.92    -0.647 OA
ATOM     19  OE2 GLU D 570     -22.280  -4.138 -13.540  1.00 32.92    -0.647 OA
ENDBRANCH  16  17
ENDBRANCH  15  16
ENDBRANCH  14  15
END_RES GLU D 570
ENDMDL
MODEL 8
REMARK VINA RESULT:      -5.9      2.580      3.972
REMARK  4 active torsions:
REMARK  status: ('A' for Active; 'I' for Inactive)
REMARK    1  A    between atoms: C_2  and  O_4 
REMARK    2  A    between atoms: O_4  and  C_5 
REMARK    3  A    between atoms: C_5  and  C_7 
REMARK    4  A    between atoms: C_10  and  O_13 
ROOT
HETATM    1  C   UNL     1     -20.895  -4.570  -8.602  1.00  0.00     0.039 A 
HETATM    2  C   UNL     1     -20.387  -4.349  -9.892  1.00  0.00     0.020 A 
HETATM    3  C   UNL     1     -21.204  -3.819 -10.894  1.00  0.00     0.037 A 
HETATM    4  C   UNL     1     -22.528  -3.509 -10.601  1.00  0.00     0.065 A 
HETATM    5  C   UNL     1     -23.039  -3.695  -9.321  1.00  0.00     0.037 A 
HETATM    6  C   UNL     1     -22.225  -4.225  -8.318  1.00  0.00     0.020 A 
ENDROOT
BRANCH   1   7
HETATM    7  C   UNL     1     -20.001  -5.193  -7.590  1.00  0.00     0.293 C 
HETATM    8  O   UNL     1     -18.920  -4.722  -7.269  1.00  0.00    -0.259 OA
BRANCH   7   9
HETATM    9  O   UNL     1     -20.546  -6.337  -7.109  1.00  0.00    -0.313 OA
BRANCH   9  10
HETATM   10  C   UNL     1     -20.622  -6.450  -5.675  1.00  0.00     0.124 C 
HETATM   11  C   UNL     1     -22.077  -6.358  -5.224  1.00  0.00     0.040 C 
HETATM   12  C   UNL     1     -20.031  -7.802  -5.292  1.00  0.00     0.040 C 
ENDBRANCH   9  10
ENDBRANCH   7   9
ENDBRANCH   1   7
BRANCH   4  13
HETATM   13  O   UNL     1     -23.373  -3.022 -11.554  1.00  0.00    -0.361 OA
HETATM   14  H   UNL     1     -22.857  -2.498 -12.189  1.00  0.00     0.217 HD
ENDBRANCH   4  13
TORSDOF 4
BEGIN_RES ARG D 557
REMARK  4 active torsions:
REMARK  status: ('A' for Active; 'I' for Inactive)
REMARK    1  A    between atoms: CA   and  CB  
REMARK    2  A    between atoms: CB   and  CG  
REMARK    3  A    between atoms: CG   and  CD  
REMARK    4  A    between atoms: CD   and  NE  
REMARK       I    between atoms: NE   and  CZ  
REMARK       I    between atoms: CZ   and  NH1 
REMARK       I    between atoms: CZ   and  NH2 
ROOT
ATOM      1  CA  ARG D 557     -26.217   2.705 -17.014  1.00 35.49     0.159 C 
ENDROOT
BRANCH   1   2
ATOM      2  CB  ARG D 557     -26.789   1.319 -17.183  1.00 35.49     0.034 C 
BRANCH   2   3
ATOM      3  CG  ARG D 557     -25.945   0.199 -16.749  1.00 35.49     0.027 C 
BRANCH   3   4
ATOM      4  CD  ARG D 557     -26.728  -0.883 -16.109  1.00 35.49     0.116 C 
BRANCH   4   5
ATOM      5  NE  ARG D 557     -26.027  -1.477 -15.002  1.00 35.49    -0.212 N 
ATOM      6  CZ  ARG D 557     -26.013  -2.756 -14.699  1.00 35.49     0.666 C 
ATOM      7  NH1 ARG D 557     -26.678  -3.658 -15.398  1.00 35.49    -0.235 N 
ATOM      8  NH2 ARG D 557     -25.305  -3.122 -13.671  1.00 35.49    -0.235 N 
ATOM      9  HH  ARG D 557     -27.149  -3.440 -16.080  1.00 35.49     0.174 HD
ATOM     10  HH  ARG D 557     -26.630  -4.478 -15.155  1.00 35.49     0.174 HD
ATOM     11  HH  ARG D 557     -24.880  -2.519 -13.243  1.00 35.49     0.174 HD
ATOM     12  HH  ARG D 557     -25.268  -3.939 -13.447  1.00 35.49     0.174 HD
ATOM     13  HE  ARG D 557     -25.631  -0.960 -14.456  1.00 35.49     0.178 HD
ENDBRANCH   4   5
ENDBRANCH   3   4
ENDBRANCH   2   3
ENDBRANCH   1   2
END_RES ARG D 557
BEGIN_RES GLU D 570
REMARK  3 active torsions:
REMARK  status: ('A' for Active; 'I' for Inactive)
REMARK    5  A    between atoms: CA   and  CB  
REMARK    6  A    between atoms: CB   and  CG  
REMARK    7  A    between atoms: CG   and  CD  
ROOT
ATOM     14  CA  GLU D 570     -18.033  -6.348 -13.375  1.00 32.92     0.160 C 
ENDROOT
BRANCH  14  15
ATOM     15  CB  GLU D 570     -19.500  -6.345 -13.794  1.00 32.92     0.043 C 
BRANCH  15  16
ATOM     16  CG  GLU D 570     -20.086  -7.634 -14.242  1.00 32.92     0.100 C 
BRANCH  16  17
ATOM     17  CD  GLU D 570     -21.122  -7.464 -15.329  1.00 32.92     0.185 C 
ATOM     18  OE1 GLU D 570     -21.939  -6.527 -15.246  1.00 32.92    -0.647 OA
ATOM     19  OE2 GLU D 570     -21.128  -8.288 -16.266  1.00 32.92    -0.647 OA
ENDBRANCH  16  17
ENDBRANCH  15  16
ENDBRANCH  14  15
END_RES GLU D 570
ENDMDL
MODEL 9
REMARK VINA RESULT:      -5.7      2.304      3.758
REMARK  4 active torsions:
REMARK  status: ('A' for Active; 'I' for Inactive)
REMARK    1  A    between atoms: C_2  and  O_4 
REMARK    2  A    between atoms: O_4  and  C_5 
REMARK    3  A    between atoms: C_5  and  C_7 
REMARK    4  A    between atoms: C_10  and  O_13 
ROOT
HETATM    1  C   UNL     1     -20.892  -4.741  -8.048  1.00  0.00     0.039 A 
HETATM    2  C   UNL     1     -20.140  -4.664  -9.230  1.00  0.00     0.020 A 
HETATM    3  C   UNL     1     -20.705  -4.144 -10.398  1.00  0.00     0.037 A 
HETATM    4  C   UNL     1     -22.023  -3.699 -10.376  1.00  0.00     0.065 A 
HETATM    5  C   UNL     1     -22.774  -3.742  -9.206  1.00  0.00     0.037 A 
HETATM    6  C   UNL     1     -22.210  -4.263  -8.039  1.00  0.00     0.020 A 
ENDROOT
BRANCH   1   7
HETATM    7  C   UNL     1     -20.261  -5.360  -6.852  1.00  0.00     0.293 C 
HETATM    8  O   UNL     1     -19.472  -4.771  -6.128  1.00  0.00    -0.259 OA
BRANCH   7   9
HETATM    9  O   UNL     1     -20.672  -6.644  -6.704  1.00  0.00    -0.313 OA
BRANCH   9  10
HETATM   10  C   UNL     1     -21.019  -7.050  -5.366  1.00  0.00     0.124 C 
HETATM   11  C   UNL     1     -22.382  -6.477  -4.989  1.00  0.00     0.040 C 
HETATM   12  C   UNL     1     -21.060  -8.574  -5.348  1.00  0.00     0.040 C 
ENDBRANCH   9  10
ENDBRANCH   7   9
ENDBRANCH   1   7
BRANCH   4  13
HETATM   13  O   UNL     1     -22.629  -3.215 -11.498  1.00  0.00    -0.361 OA
HETATM   14  H   UNL     1     -21.958  -2.787 -12.055  1.00  0.00     0.217 HD
ENDBRANCH   4  13
TORSDOF 4
BEGIN_RES ARG D 557
REMARK  4 active torsions:
REMARK  status: ('A' for Active; 'I' for Inactive)
REMARK    1  A    between atoms: CA   and  CB  
REMARK    2  A    between atoms: CB   and  CG  
REMARK    3  A    between atoms: CG   and  CD  
REMARK    4  A    between atoms: CD   and  NE  
REMARK       I    between atoms: NE   and  CZ  
REMARK       I    between atoms: CZ   and  NH1 
REMARK       I    between atoms: CZ   and  NH2 
ROOT
ATOM      1  CA  ARG D 557     -26.217   2.705 -17.014  1.00 35.49     0.159 C 
ENDROOT
BRANCH   1   2
ATOM      2  CB  ARG D 557     -26.789   1.319 -17.183  1.00 35.49     0.034 C 
BRANCH   2   3
ATOM      3  CG  ARG D 557     -28.231   1.226 -17.441  1.00 35.49     0.027 C 
BRANCH   3   4
ATOM      4  CD  ARG D 557     -28.914   0.304 -16.505  1.00 35.49     0.116 C 
BRANCH   4   5
ATOM      5  NE  ARG D 557     -29.291  -0.932 -17.139  1.00 35.49    -0.212 N 
ATOM      6  CZ  ARG D 557     -28.653  -2.076 -17.031  1.00 35.49     0.666 C 
ATOM      7  NH1 ARG D 557     -27.553  -2.210 -16.314  1.00 35.49    -0.235 N 
ATOM      8  NH2 ARG D 557     -29.150  -3.101 -17.659  1.00 35.49    -0.235 N 
ATOM      9  HH  ARG D 557     -27.209  -1.549 -15.890  1.00 35.49     0.174 HD
ATOM     10  HH  ARG D 557     -27.182  -2.981 -16.278  1.00 35.49     0.174 HD
ATOM     11  HH  ARG D 557     -29.866  -2.987 -18.108  1.00 35.49     0.174 HD
ATOM     12  HH  ARG D 557     -28.769  -3.857 -17.610  1.00 35.49     0.174 HD
ATOM     13  HE  ARG D 557     -29.948  -0.919 -17.678  1.00 35.49     0.178 HD
ENDBRANCH   4   5
ENDBRANCH   3   4
ENDBRANCH   2   3
ENDBRANCH   1   2
END_RES ARG D 557
BEGIN_RES GLU D 570
REMARK  3 active torsions:
REMARK  status: ('A' for Active; 'I' for Inactive)
REMARK    5  A    between atoms: CA   and  CB  
REMARK    6  A    between atoms: CB   and  CG  
REMARK    7  A    between atoms: CG   and  CD  
ROOT
ATOM     14  CA  GLU D 570     -18.033  -6.348 -13.375  1.00 32.92     0.160 C 
ENDROOT
BRANCH  14  15
ATOM     15  CB  GLU D 570     -19.500  -6.345 -13.794  1.00 32.92     0.043 C 
BRANCH  15  16
ATOM     16  CG  GLU D 570     -19.798  -6.209 -15.243  1.00 32.92     0.100 C 
BRANCH  16  17
ATOM     17  CD  GLU D 570     -20.631  -7.348 -15.783  1.00 32.92     0.185 C 
ATOM     18  OE1 GLU D 570     -21.328  -7.159 -16.799  1.00 32.92    -0.647 OA
ATOM     19  OE2 GLU D 570     -20.599  -8.435 -15.174  1.00 32.92    -0.647 OA
ENDBRANCH  16  17
ENDBRANCH  15  16
ENDBRANCH  14  15
END_RES GLU D 570
ENDMDL
