MODEL 1
REMARK VINA RESULT:      -4.6      0.000      0.000
REMARK  4 active torsions:
REMARK  status: ('A' for Active; 'I' for Inactive)
REMARK    1  A    between atoms: C_5  and  C_8 
REMARK    2  A    between atoms: N_9  and  N_11 
REMARK    3  A    between atoms: N_11  and  C_13 
REMARK    4  A    between atoms: O_20  and  S_21 
ROOT
HETATM    1  S   UNL     2     -25.275  -6.907 -15.869  1.00  0.00     0.251 S 
HETATM    2  O   UNL     2     -24.492  -8.098 -16.209  1.00  0.00    -0.572 OA
HETATM    3  O   UNL     2     -25.713  -6.136 -17.023  1.00  0.00    -0.572 OA
HETATM    4  O   UNL     2     -24.746  -6.133 -14.756  1.00  0.00    -0.572 OA
ENDROOT
BRANCH   1   5
HETATM    5  O   UNL     2     -26.657  -7.548 -15.288  1.00  0.00    -0.262 OA
HETATM    6  C   UNL     2     -27.864  -7.031 -15.795  1.00  0.00     0.228 C 
ENDBRANCH   1   5
TORSDOF 4
BEGIN_RES ARG D 557
REMARK  4 active torsions:
REMARK  status: ('A' for Active; 'I' for Inactive)
REMARK    1  A    between atoms: CA   and  CB  
REMARK    2  A    between atoms: CB   and  CG  
REMARK    3  A    between atoms: CG   and  CD  
REMARK    4  A    between atoms: CD   and  NE  
REMARK       I    between atoms: NE   and  CZ  
REMARK       I    between atoms: CZ   and  NH1 
REMARK       I    between atoms: CZ   and  NH2 
ROOT
ATOM      1  CA  ARG D 557     -26.217   2.705 -17.014  1.00 35.49     0.159 C 
ENDROOT
BRANCH   1   2
ATOM      2  CB  ARG D 557     -26.789   1.319 -17.183  1.00 35.49     0.034 C 
BRANCH   2   3
ATOM      3  CG  ARG D 557     -25.926   0.196 -16.795  1.00 35.49     0.027 C 
BRANCH   3   4
ATOM      4  CD  ARG D 557     -26.671  -0.868 -16.085  1.00 35.49     0.116 C 
BRANCH   4   5
ATOM      5  NE  ARG D 557     -25.866  -1.518 -15.084  1.00 35.49    -0.212 N 
ATOM      6  CZ  ARG D 557     -25.896  -2.798 -14.787  1.00 35.49     0.666 C 
ATOM      7  NH1 ARG D 557     -26.708  -3.647 -15.388  1.00 35.49    -0.235 N 
ATOM      8  NH2 ARG D 557     -25.079  -3.219 -13.865  1.00 35.49    -0.235 N 
ATOM      9  HH  ARG D 557     -27.252  -3.392 -15.999  1.00 35.49     0.174 HD
ATOM     10  HH  ARG D 557     -26.682  -4.471 -15.154  1.00 35.49     0.174 HD
ATOM     11  HH  ARG D 557     -24.561  -2.649 -13.499  1.00 35.49     0.174 HD
ATOM     12  HH  ARG D 557     -25.067  -4.038 -13.648  1.00 35.49     0.174 HD
ATOM     13  HE  ARG D 557     -25.366  -1.033 -14.598  1.00 35.49     0.178 HD
ENDBRANCH   4   5
ENDBRANCH   3   4
ENDBRANCH   2   3
ENDBRANCH   1   2
END_RES ARG D 557
BEGIN_RES GLU D 570
REMARK  3 active torsions:
REMARK  status: ('A' for Active; 'I' for Inactive)
REMARK    5  A    between atoms: CA   and  CB  
REMARK    6  A    between atoms: CB   and  CG  
REMARK    7  A    between atoms: CG   and  CD  
ROOT
ATOM     14  CA  GLU D 570     -18.033  -6.348 -13.375  1.00 32.92     0.160 C 
ENDROOT
BRANCH  14  15
ATOM     15  CB  GLU D 570     -19.500  -6.345 -13.794  1.00 32.92     0.043 C 
BRANCH  15  16
ATOM     16  CG  GLU D 570     -20.458  -5.612 -12.927  1.00 32.92     0.100 C 
BRANCH  16  17
ATOM     17  CD  GLU D 570     -21.592  -4.983 -13.702  1.00 32.92     0.185 C 
ATOM     18  OE1 GLU D 570     -21.596  -5.068 -14.945  1.00 32.92    -0.647 OA
ATOM     19  OE2 GLU D 570     -22.477  -4.383 -13.059  1.00 32.92    -0.647 OA
ENDBRANCH  16  17
ENDBRANCH  15  16
ENDBRANCH  14  15
END_RES GLU D 570
ENDMDL
MODEL 2
REMARK VINA RESULT:      -4.1      3.289      4.798
REMARK  4 active torsions:
REMARK  status: ('A' for Active; 'I' for Inactive)
REMARK    1  A    between atoms: C_5  and  C_8 
REMARK    2  A    between atoms: N_9  and  N_11 
REMARK    3  A    between atoms: N_11  and  C_13 
REMARK    4  A    between atoms: O_20  and  S_21 
ROOT
HETATM    1  S   UNL     2     -24.071  -3.804 -10.287  1.00  0.00     0.251 S 
HETATM    2  O   UNL     2     -25.448  -3.306 -10.223  1.00  0.00    -0.572 OA
HETATM    3  O   UNL     2     -23.136  -2.884 -10.918  1.00  0.00    -0.572 OA
HETATM    4  O   UNL     2     -23.950  -5.199 -10.684  1.00  0.00    -0.572 OA
ENDROOT
BRANCH   1   5
HETATM    5  O   UNL     2     -23.620  -3.794  -8.720  1.00  0.00    -0.262 OA
HETATM    6  C   UNL     2     -22.365  -4.350  -8.412  1.00  0.00     0.228 C 
ENDBRANCH   1   5
TORSDOF 4
BEGIN_RES ARG D 557
REMARK  4 active torsions:
REMARK  status: ('A' for Active; 'I' for Inactive)
REMARK    1  A    between atoms: CA   and  CB  
REMARK    2  A    between atoms: CB   and  CG  
REMARK    3  A    between atoms: CG   and  CD  
REMARK    4  A    between atoms: CD   and  NE  
REMARK       I    between atoms: NE   and  CZ  
REMARK       I    between atoms: CZ   and  NH1 
REMARK       I    between atoms: CZ   and  NH2 
ROOT
ATOM      1  CA  ARG D 557     -26.217   2.705 -17.014  1.00 35.49     0.159 C 
ENDROOT
BRANCH   1   2
ATOM      2  CB  ARG D 557     -26.789   1.319 -17.183  1.00 35.49     0.034 C 
BRANCH   2   3
ATOM      3  CG  ARG D 557     -25.836   0.203 -17.153  1.00 35.49     0.027 C 
BRANCH   3   4
ATOM      4  CD  ARG D 557     -24.745   0.419 -16.175  1.00 35.49     0.116 C 
BRANCH   4   5
ATOM      5  NE  ARG D 557     -24.879  -0.426 -15.018  1.00 35.49    -0.212 N 
ATOM      6  CZ  ARG D 557     -24.060  -1.395 -14.675  1.00 35.49     0.666 C 
ATOM      7  NH1 ARG D 557     -22.999  -1.714 -15.393  1.00 35.49    -0.235 N 
ATOM      8  NH2 ARG D 557     -24.324  -2.046 -13.580  1.00 35.49    -0.235 N 
ATOM      9  HH  ARG D 557     -22.804  -1.298 -16.117  1.00 35.49     0.174 HD
ATOM     10  HH  ARG D 557     -22.499  -2.354 -15.119  1.00 35.49     0.174 HD
ATOM     11  HH  ARG D 557     -25.012  -1.813 -13.132  1.00 35.49     0.174 HD
ATOM     12  HH  ARG D 557     -23.817  -2.675 -13.324  1.00 35.49     0.174 HD
ATOM     13  HE  ARG D 557     -25.575  -0.338 -14.537  1.00 35.49     0.178 HD
ENDBRANCH   4   5
ENDBRANCH   3   4
ENDBRANCH   2   3
ENDBRANCH   1   2
END_RES ARG D 557
BEGIN_RES GLU D 570
REMARK  3 active torsions:
REMARK  status: ('A' for Active; 'I' for Inactive)
REMARK    5  A    between atoms: CA   and  CB  
REMARK    6  A    between atoms: CB   and  CG  
REMARK    7  A    between atoms: CG   and  CD  
ROOT
ATOM     14  CA  GLU D 570     -18.033  -6.348 -13.375  1.00 32.92     0.160 C 
ENDROOT
BRANCH  14  15
ATOM     15  CB  GLU D 570     -19.500  -6.345 -13.794  1.00 32.92     0.043 C 
BRANCH  15  16
ATOM     16  CG  GLU D 570     -20.438  -5.513 -12.997  1.00 32.92     0.100 C 
BRANCH  16  17
ATOM     17  CD  GLU D 570     -21.750  -5.262 -13.703  1.00 32.92     0.185 C 
ATOM     18  OE1 GLU D 570     -22.307  -6.206 -14.296  1.00 32.92    -0.647 OA
ATOM     19  OE2 GLU D 570     -22.217  -4.107 -13.678  1.00 32.92    -0.647 OA
ENDBRANCH  16  17
ENDBRANCH  15  16
ENDBRANCH  14  15
END_RES GLU D 570
ENDMDL
MODEL 3
REMARK VINA RESULT:      -4.0      1.833      2.068
REMARK  4 active torsions:
REMARK  status: ('A' for Active; 'I' for Inactive)
REMARK    1  A    between atoms: C_5  and  C_8 
REMARK    2  A    between atoms: N_9  and  N_11 
REMARK    3  A    between atoms: N_11  and  C_13 
REMARK    4  A    between atoms: O_20  and  S_21 
ROOT
HETATM    1  S   UNL     2     -25.600  -6.367 -16.118  1.00  0.00     0.251 S 
HETATM    2  O   UNL     2     -26.128  -7.496 -15.347  1.00  0.00    -0.572 OA
HETATM    3  O   UNL     2     -24.821  -6.757 -17.285  1.00  0.00    -0.572 OA
HETATM    4  O   UNL     2     -25.036  -5.295 -15.312  1.00  0.00    -0.572 OA
ENDROOT
BRANCH   1   5
HETATM    5  O   UNL     2     -26.951  -5.716 -16.759  1.00  0.00    -0.262 OA
HETATM    6  C   UNL     2     -27.311  -6.138 -18.053  1.00  0.00     0.228 C 
ENDBRANCH   1   5
TORSDOF 4
BEGIN_RES ARG D 557
REMARK  4 active torsions:
REMARK  status: ('A' for Active; 'I' for Inactive)
REMARK    1  A    between atoms: CA   and  CB  
REMARK    2  A    between atoms: CB   and  CG  
REMARK    3  A    between atoms: CG   and  CD  
REMARK    4  A    between atoms: CD   and  NE  
REMARK       I    between atoms: NE   and  CZ  
REMARK       I    between atoms: CZ   and  NH1 
REMARK       I    between atoms: CZ   and  NH2 
ROOT
ATOM      1  CA  ARG D 557     -26.217   2.705 -17.014  1.00 35.49     0.159 C 
ENDROOT
BRANCH   1   2
ATOM      2  CB  ARG D 557     -26.789   1.319 -17.183  1.00 35.49     0.034 C 
BRANCH   2   3
ATOM      3  CG  ARG D 557     -28.241   1.179 -17.020  1.00 35.49     0.027 C 
BRANCH   3   4
ATOM      4  CD  ARG D 557     -28.650  -0.225 -16.787  1.00 35.49     0.116 C 
BRANCH   4   5
ATOM      5  NE  ARG D 557     -27.645  -0.972 -16.078  1.00 35.49    -0.212 N 
ATOM      6  CZ  ARG D 557     -27.479  -2.275 -16.127  1.00 35.49     0.666 C 
ATOM      7  NH1 ARG D 557     -28.257  -3.062 -16.847  1.00 35.49    -0.235 N 
ATOM      8  NH2 ARG D 557     -26.500  -2.782 -15.435  1.00 35.49    -0.235 N 
ATOM      9  HH  ARG D 557     -28.906  -2.750 -17.312  1.00 35.49     0.174 HD
ATOM     10  HH  ARG D 557     -28.100  -3.905 -16.842  1.00 35.49     0.174 HD
ATOM     11  HH  ARG D 557     -26.010  -2.249 -14.986  1.00 35.49     0.174 HD
ATOM     12  HH  ARG D 557     -26.360  -3.619 -15.445  1.00 35.49     0.174 HD
ATOM     13  HE  ARG D 557     -27.145  -0.552 -15.533  1.00 35.49     0.178 HD
ENDBRANCH   4   5
ENDBRANCH   3   4
ENDBRANCH   2   3
ENDBRANCH   1   2
END_RES ARG D 557
BEGIN_RES GLU D 570
REMARK  3 active torsions:
REMARK  status: ('A' for Active; 'I' for Inactive)
REMARK    5  A    between atoms: CA   and  CB  
REMARK    6  A    between atoms: CB   and  CG  
REMARK    7  A    between atoms: CG   and  CD  
ROOT
ATOM     14  CA  GLU D 570     -18.033  -6.348 -13.375  1.00 32.92     0.160 C 
ENDROOT
BRANCH  14  15
ATOM     15  CB  GLU D 570     -19.500  -6.345 -13.794  1.00 32.92     0.043 C 
BRANCH  15  16
ATOM     16  CG  GLU D 570     -19.809  -5.988 -15.203  1.00 32.92     0.100 C 
BRANCH  16  17
ATOM     17  CD  GLU D 570     -21.289  -5.826 -15.459  1.00 32.92     0.185 C 
ATOM     18  OE1 GLU D 570     -21.686  -4.840 -16.110  1.00 32.92    -0.647 OA
ATOM     19  OE2 GLU D 570     -22.061  -6.684 -14.989  1.00 32.92    -0.647 OA
ENDBRANCH  16  17
ENDBRANCH  15  16
ENDBRANCH  14  15
END_RES GLU D 570
ENDMDL
MODEL 4
REMARK VINA RESULT:      -4.0      3.065      3.968
REMARK  4 active torsions:
REMARK  status: ('A' for Active; 'I' for Inactive)
REMARK    1  A    between atoms: C_5  and  C_8 
REMARK    2  A    between atoms: N_9  and  N_11 
REMARK    3  A    between atoms: N_11  and  C_13 
REMARK    4  A    between atoms: O_20  and  S_21 
ROOT
HETATM    1  S   UNL     2     -24.466  -2.570 -14.530  1.00  0.00     0.251 S 
HETATM    2  O   UNL     2     -23.088  -2.357 -14.982  1.00  0.00    -0.572 OA
HETATM    3  O   UNL     2     -24.980  -3.904 -14.806  1.00  0.00    -0.572 OA
HETATM    4  O   UNL     2     -25.374  -1.471 -14.819  1.00  0.00    -0.572 OA
ENDROOT
BRANCH   1   5
HETATM    5  O   UNL     2     -24.311  -2.546 -12.907  1.00  0.00    -0.262 OA
HETATM    6  C   UNL     2     -23.310  -3.362 -12.348  1.00  0.00     0.228 C 
ENDBRANCH   1   5
TORSDOF 4
BEGIN_RES ARG D 557
REMARK  4 active torsions:
REMARK  status: ('A' for Active; 'I' for Inactive)
REMARK    1  A    between atoms: CA   and  CB  
REMARK    2  A    between atoms: CB   and  CG  
REMARK    3  A    between atoms: CG   and  CD  
REMARK    4  A    between atoms: CD   and  NE  
REMARK       I    between atoms: NE   and  CZ  
REMARK       I    between atoms: CZ   and  NH1 
REMARK       I    between atoms: CZ   and  NH2 
ROOT
ATOM      1  CA  ARG D 557     -26.217   2.705 -17.014  1.00 35.49     0.159 C 
ENDROOT
BRANCH   1   2
ATOM      2  CB  ARG D 557     -26.789   1.319 -17.183  1.00 35.49     0.034 C 
BRANCH   2   3
ATOM      3  CG  ARG D 557     -28.234   1.226 -17.425  1.00 35.49     0.027 C 
BRANCH   3   4
ATOM      4  CD  ARG D 557     -28.905   0.300 -16.483  1.00 35.49     0.116 C 
BRANCH   4   5
ATOM      5  NE  ARG D 557     -28.124  -0.883 -16.236  1.00 35.49    -0.212 N 
ATOM      6  CZ  ARG D 557     -28.374  -2.081 -16.715  1.00 35.49     0.666 C 
ATOM      7  NH1 ARG D 557     -29.414  -2.334 -17.488  1.00 35.49    -0.235 N 
ATOM      8  NH2 ARG D 557     -27.545  -3.036 -16.405  1.00 35.49    -0.235 N 
ATOM      9  HH  ARG D 557     -29.970  -1.720 -17.706  1.00 35.49     0.174 HD
ATOM     10  HH  ARG D 557     -29.524  -3.134 -17.773  1.00 35.49     0.174 HD
ATOM     11  HH  ARG D 557     -26.878  -2.842 -15.910  1.00 35.49     0.174 HD
ATOM     12  HH  ARG D 557     -27.671  -3.822 -16.698  1.00 35.49     0.174 HD
ATOM     13  HE  ARG D 557     -27.476  -0.827 -15.689  1.00 35.49     0.178 HD
ENDBRANCH   4   5
ENDBRANCH   3   4
ENDBRANCH   2   3
ENDBRANCH   1   2
END_RES ARG D 557
BEGIN_RES GLU D 570
REMARK  3 active torsions:
REMARK  status: ('A' for Active; 'I' for Inactive)
REMARK    5  A    between atoms: CA   and  CB  
REMARK    6  A    between atoms: CB   and  CG  
REMARK    7  A    between atoms: CG   and  CD  
ROOT
ATOM     14  CA  GLU D 570     -18.033  -6.348 -13.375  1.00 32.92     0.160 C 
ENDROOT
BRANCH  14  15
ATOM     15  CB  GLU D 570     -19.500  -6.345 -13.794  1.00 32.92     0.043 C 
BRANCH  15  16
ATOM     16  CG  GLU D 570     -19.807  -6.012 -15.209  1.00 32.92     0.100 C 
BRANCH  16  17
ATOM     17  CD  GLU D 570     -21.233  -5.556 -15.411  1.00 32.92     0.185 C 
ATOM     18  OE1 GLU D 570     -22.091  -5.854 -14.558  1.00 32.92    -0.647 OA
ATOM     19  OE2 GLU D 570     -21.499  -4.906 -16.442  1.00 32.92    -0.647 OA
ENDBRANCH  16  17
ENDBRANCH  15  16
ENDBRANCH  14  15
END_RES GLU D 570
ENDMDL
MODEL 5
REMARK VINA RESULT:      -4.0      3.023      4.288
REMARK  4 active torsions:
REMARK  status: ('A' for Active; 'I' for Inactive)
REMARK    1  A    between atoms: C_5  and  C_8 
REMARK    2  A    between atoms: N_9  and  N_11 
REMARK    3  A    between atoms: N_11  and  C_13 
REMARK    4  A    between atoms: O_20  and  S_21 
ROOT
HETATM    1  S   UNL     2     -23.797  -4.118 -11.183  1.00  0.00     0.251 S 
HETATM    2  O   UNL     2     -23.614  -4.751 -12.491  1.00  0.00    -0.572 OA
HETATM    3  O   UNL     2     -23.613  -5.021 -10.056  1.00  0.00    -0.572 OA
HETATM    4  O   UNL     2     -24.944  -3.226 -11.098  1.00  0.00    -0.572 OA
ENDROOT
BRANCH   1   5
HETATM    5  O   UNL     2     -22.509  -3.122 -11.091  1.00  0.00    -0.262 OA
HETATM    6  C   UNL     2     -21.236  -3.712 -11.199  1.00  0.00     0.228 C 
ENDBRANCH   1   5
TORSDOF 4
BEGIN_RES ARG D 557
REMARK  4 active torsions:
REMARK  status: ('A' for Active; 'I' for Inactive)
REMARK    1  A    between atoms: CA   and  CB  
REMARK    2  A    between atoms: CB   and  CG  
REMARK    3  A    between atoms: CG   and  CD  
REMARK    4  A    between atoms: CD   and  NE  
REMARK       I    between atoms: NE   and  CZ  
REMARK       I    between atoms: CZ   and  NH1 
REMARK       I    between atoms: CZ   and  NH2 
ROOT
ATOM      1  CA  ARG D 557     -26.217   2.705 -17.014  1.00 35.49     0.159 C 
ENDROOT
BRANCH   1   2
ATOM      2  CB  ARG D 557     -26.789   1.319 -17.183  1.00 35.49     0.034 C 
BRANCH   2   3
ATOM      3  CG  ARG D 557     -25.853   0.197 -17.043  1.00 35.49     0.027 C 
BRANCH   3   4
ATOM      4  CD  ARG D 557     -26.167  -0.658 -15.875  1.00 35.49     0.116 C 
BRANCH   4   5
ATOM      5  NE  ARG D 557     -25.037  -0.815 -14.999  1.00 35.49    -0.212 N 
ATOM      6  CZ  ARG D 557     -24.752  -1.890 -14.299  1.00 35.49     0.666 C 
ATOM      7  NH1 ARG D 557     -25.509  -2.971 -14.318  1.00 35.49    -0.235 N 
ATOM      8  NH2 ARG D 557     -23.672  -1.864 -13.572  1.00 35.49    -0.235 N 
ATOM      9  HH  ARG D 557     -26.223  -3.011 -14.791  1.00 35.49     0.174 HD
ATOM     10  HH  ARG D 557     -25.272  -3.643 -13.843  1.00 35.49     0.174 HD
ATOM     11  HH  ARG D 557     -23.198  -1.155 -13.584  1.00 35.49     0.174 HD
ATOM     12  HH  ARG D 557     -23.453  -2.540 -13.109  1.00 35.49     0.174 HD
ATOM     13  HE  ARG D 557     -24.535  -0.141 -14.870  1.00 35.49     0.178 HD
ENDBRANCH   4   5
ENDBRANCH   3   4
ENDBRANCH   2   3
ENDBRANCH   1   2
END_RES ARG D 557
BEGIN_RES GLU D 570
REMARK  3 active torsions:
REMARK  status: ('A' for Active; 'I' for Inactive)
REMARK    5  A    between atoms: CA   and  CB  
REMARK    6  A    between atoms: CB   and  CG  
REMARK    7  A    between atoms: CG   and  CD  
ROOT
ATOM     14  CA  GLU D 570     -18.033  -6.348 -13.375  1.00 32.92     0.160 C 
ENDROOT
BRANCH  14  15
ATOM     15  CB  GLU D 570     -19.500  -6.345 -13.794  1.00 32.92     0.043 C 
BRANCH  15  16
ATOM     16  CG  GLU D 570     -19.813  -5.940 -15.189  1.00 32.92     0.100 C 
BRANCH  16  17
ATOM     17  CD  GLU D 570     -21.286  -5.691 -15.414  1.00 32.92     0.185 C 
ATOM     18  OE1 GLU D 570     -21.641  -4.650 -16.000  1.00 32.92    -0.647 OA
ATOM     19  OE2 GLU D 570     -22.094  -6.538 -14.985  1.00 32.92    -0.647 OA
ENDBRANCH  16  17
ENDBRANCH  15  16
ENDBRANCH  14  15
END_RES GLU D 570
ENDMDL
MODEL 6
REMARK VINA RESULT:      -4.0      1.679      2.250
REMARK  4 active torsions:
REMARK  status: ('A' for Active; 'I' for Inactive)
REMARK    1  A    between atoms: C_5  and  C_8 
REMARK    2  A    between atoms: N_9  and  N_11 
REMARK    3  A    between atoms: N_11  and  C_13 
REMARK    4  A    between atoms: O_20  and  S_21 
ROOT
HETATM    1  S   UNL     2     -25.230  -6.495 -16.042  1.00  0.00     0.251 S 
HETATM    2  O   UNL     2     -24.350  -5.729 -15.155  1.00  0.00    -0.572 OA
HETATM    3  O   UNL     2     -26.035  -7.498 -15.358  1.00  0.00    -0.572 OA
HETATM    4  O   UNL     2     -24.610  -6.924 -17.286  1.00  0.00    -0.572 OA
ENDROOT
BRANCH   1   5
HETATM    5  O   UNL     2     -26.323  -5.377 -16.505  1.00  0.00    -0.262 OA
HETATM    6  C   UNL     2     -27.423  -5.831 -17.257  1.00  0.00     0.228 C 
ENDBRANCH   1   5
TORSDOF 4
BEGIN_RES ARG D 557
REMARK  4 active torsions:
REMARK  status: ('A' for Active; 'I' for Inactive)
REMARK    1  A    between atoms: CA   and  CB  
REMARK    2  A    between atoms: CB   and  CG  
REMARK    3  A    between atoms: CG   and  CD  
REMARK    4  A    between atoms: CD   and  NE  
REMARK       I    between atoms: NE   and  CZ  
REMARK       I    between atoms: CZ   and  NH1 
REMARK       I    between atoms: CZ   and  NH2 
ROOT
ATOM      1  CA  ARG D 557     -26.217   2.705 -17.014  1.00 35.49     0.159 C 
ENDROOT
BRANCH   1   2
ATOM      2  CB  ARG D 557     -26.789   1.319 -17.183  1.00 35.49     0.034 C 
BRANCH   2   3
ATOM      3  CG  ARG D 557     -25.865   0.195 -16.991  1.00 35.49     0.027 C 
BRANCH   3   4
ATOM      4  CD  ARG D 557     -26.306  -0.721 -15.914  1.00 35.49     0.116 C 
BRANCH   4   5
ATOM      5  NE  ARG D 557     -25.270  -0.958 -14.944  1.00 35.49    -0.212 N 
ATOM      6  CZ  ARG D 557     -25.055  -2.089 -14.310  1.00 35.49     0.666 C 
ATOM      7  NH1 ARG D 557     -25.806  -3.159 -14.495  1.00 35.49    -0.235 N 
ATOM      8  NH2 ARG D 557     -24.054  -2.131 -13.479  1.00 35.49    -0.235 N 
ATOM      9  HH  ARG D 557     -26.468  -3.154 -15.038  1.00 35.49     0.174 HD
ATOM     10  HH  ARG D 557     -25.617  -3.870 -14.055  1.00 35.49     0.174 HD
ATOM     11  HH  ARG D 557     -23.582  -1.427 -13.386  1.00 35.49     0.174 HD
ATOM     12  HH  ARG D 557     -23.882  -2.844 -13.055  1.00 35.49     0.174 HD
ATOM     13  HE  ARG D 557     -24.783  -0.300 -14.711  1.00 35.49     0.178 HD
ENDBRANCH   4   5
ENDBRANCH   3   4
ENDBRANCH   2   3
ENDBRANCH   1   2
END_RES ARG D 557
BEGIN_RES GLU D 570
REMARK  3 active torsions:
REMARK  status: ('A' for Active; 'I' for Inactive)
REMARK    5  A    between atoms: CA   and  CB  
REMARK    6  A    between atoms: CB   and  CG  
REMARK    7  A    between atoms: CG   and  CD  
ROOT
ATOM     14  CA  GLU D 570     -18.033  -6.348 -13.375  1.00 32.92     0.160 C 
ENDROOT
BRANCH  14  15
ATOM     15  CB  GLU D 570     -19.500  -6.345 -13.794  1.00 32.92     0.043 C 
BRANCH  15  16
ATOM     16  CG  GLU D 570     -20.086  -7.634 -14.245  1.00 32.92     0.100 C 
BRANCH  16  17
ATOM     17  CD  GLU D 570     -20.792  -7.527 -15.576  1.00 32.92     0.185 C 
ATOM     18  OE1 GLU D 570     -21.124  -8.570 -16.170  1.00 32.92    -0.647 OA
ATOM     19  OE2 GLU D 570     -21.001  -6.387 -16.037  1.00 32.92    -0.647 OA
ENDBRANCH  16  17
ENDBRANCH  15  16
ENDBRANCH  14  15
END_RES GLU D 570
ENDMDL
MODEL 7
REMARK VINA RESULT:      -3.9      6.923      7.459
REMARK  4 active torsions:
REMARK  status: ('A' for Active; 'I' for Inactive)
REMARK    1  A    between atoms: C_5  and  C_8 
REMARK    2  A    between atoms: N_9  and  N_11 
REMARK    3  A    between atoms: N_11  and  C_13 
REMARK    4  A    between atoms: O_20  and  S_21 
ROOT
HETATM    1  S   UNL     2     -35.393  -1.571 -12.441  1.00  0.00     0.251 S 
HETATM    2  O   UNL     2     -34.744  -2.301 -13.534  1.00  0.00    -0.572 OA
HETATM    3  O   UNL     2     -34.691  -0.361 -12.037  1.00  0.00    -0.572 OA
HETATM    4  O   UNL     2     -35.880  -2.411 -11.358  1.00  0.00    -0.572 OA
ENDROOT
BRANCH   1   5
HETATM    5  O   UNL     2     -36.749  -1.008 -13.151  1.00  0.00    -0.262 OA
HETATM    6  C   UNL     2     -36.607   0.089 -14.021  1.00  0.00     0.228 C 
ENDBRANCH   1   5
TORSDOF 4
BEGIN_RES ARG D 557
REMARK  4 active torsions:
REMARK  status: ('A' for Active; 'I' for Inactive)
REMARK    1  A    between atoms: CA   and  CB  
REMARK    2  A    between atoms: CB   and  CG  
REMARK    3  A    between atoms: CG   and  CD  
REMARK    4  A    between atoms: CD   and  NE  
REMARK       I    between atoms: NE   and  CZ  
REMARK       I    between atoms: CZ   and  NH1 
REMARK       I    between atoms: CZ   and  NH2 
ROOT
ATOM      1  CA  ARG D 557     -26.217   2.705 -17.014  1.00 35.49     0.159 C 
ENDROOT
BRANCH   1   2
ATOM      2  CB  ARG D 557     -26.789   1.319 -17.183  1.00 35.49     0.034 C 
BRANCH   2   3
ATOM      3  CG  ARG D 557     -25.836   0.203 -17.152  1.00 35.49     0.027 C 
BRANCH   3   4
ATOM      4  CD  ARG D 557     -24.755   0.411 -16.162  1.00 35.49     0.116 C 
BRANCH   4   5
ATOM      5  NE  ARG D 557     -24.899  -0.442 -15.012  1.00 35.49    -0.212 N 
ATOM      6  CZ  ARG D 557     -24.081  -1.410 -14.667  1.00 35.49     0.666 C 
ATOM      7  NH1 ARG D 557     -23.009  -1.719 -15.373  1.00 35.49    -0.235 N 
ATOM      8  NH2 ARG D 557     -24.356  -2.069 -13.579  1.00 35.49    -0.235 N 
ATOM      9  HH  ARG D 557     -22.808  -1.297 -16.091  1.00 35.49     0.174 HD
ATOM     10  HH  ARG D 557     -22.510  -2.359 -15.097  1.00 35.49     0.174 HD
ATOM     11  HH  ARG D 557     -25.051  -1.843 -13.138  1.00 35.49     0.174 HD
ATOM     12  HH  ARG D 557     -23.849  -2.698 -13.321  1.00 35.49     0.174 HD
ATOM     13  HE  ARG D 557     -25.602  -0.360 -14.540  1.00 35.49     0.178 HD
ENDBRANCH   4   5
ENDBRANCH   3   4
ENDBRANCH   2   3
ENDBRANCH   1   2
END_RES ARG D 557
BEGIN_RES GLU D 570
REMARK  3 active torsions:
REMARK  status: ('A' for Active; 'I' for Inactive)
REMARK    5  A    between atoms: CA   and  CB  
REMARK    6  A    between atoms: CB   and  CG  
REMARK    7  A    between atoms: CG   and  CD  
ROOT
ATOM     14  CA  GLU D 570     -18.033  -6.348 -13.375  1.00 32.92     0.160 C 
ENDROOT
BRANCH  14  15
ATOM     15  CB  GLU D 570     -19.500  -6.345 -13.794  1.00 32.92     0.043 C 
BRANCH  15  16
ATOM     16  CG  GLU D 570     -20.444  -5.539 -12.977  1.00 32.92     0.100 C 
BRANCH  16  17
ATOM     17  CD  GLU D 570     -21.735  -5.232 -13.699  1.00 32.92     0.185 C 
ATOM     18  OE1 GLU D 570     -22.212  -6.083 -14.475  1.00 32.92    -0.647 OA
ATOM     19  OE2 GLU D 570     -22.267  -4.122 -13.499  1.00 32.92    -0.647 OA
ENDBRANCH  16  17
ENDBRANCH  15  16
ENDBRANCH  14  15
END_RES GLU D 570
ENDMDL
MODEL 8
REMARK VINA RESULT:      -3.5     10.420     12.589
REMARK  4 active torsions:
REMARK  status: ('A' for Active; 'I' for Inactive)
REMARK    1  A    between atoms: C_5  and  C_8 
REMARK    2  A    between atoms: N_9  and  N_11 
REMARK    3  A    between atoms: N_11  and  C_13 
REMARK    4  A    between atoms: O_20  and  S_21 
ROOT
HETATM    1  S   UNL     2     -10.854   5.743 -19.430  1.00  0.00     0.251 S 
HETATM    2  O   UNL     2     -12.010   4.943 -19.018  1.00  0.00    -0.572 OA
HETATM    3  O   UNL     2     -10.435   5.514 -20.806  1.00  0.00    -0.572 OA
HETATM    4  O   UNL     2      -9.784   5.812 -18.447  1.00  0.00    -0.572 OA
ENDROOT
BRANCH   1   5
HETATM    5  O   UNL     2     -11.466   7.254 -19.463  1.00  0.00    -0.262 OA
HETATM    6  C   UNL     2     -10.552   8.310 -19.635  1.00  0.00     0.228 C 
ENDBRANCH   1   5
TORSDOF 4
BEGIN_RES ARG D 557
REMARK  4 active torsions:
REMARK  status: ('A' for Active; 'I' for Inactive)
REMARK    1  A    between atoms: CA   and  CB  
REMARK    2  A    between atoms: CB   and  CG  
REMARK    3  A    between atoms: CG   and  CD  
REMARK    4  A    between atoms: CD   and  NE  
REMARK       I    between atoms: NE   and  CZ  
REMARK       I    between atoms: CZ   and  NH1 
REMARK       I    between atoms: CZ   and  NH2 
ROOT
ATOM      1  CA  ARG D 557     -26.217   2.705 -17.014  1.00 35.49     0.159 C 
ENDROOT
BRANCH   1   2
ATOM      2  CB  ARG D 557     -26.789   1.319 -17.183  1.00 35.49     0.034 C 
BRANCH   2   3
ATOM      3  CG  ARG D 557     -25.835   0.203 -17.158  1.00 35.49     0.027 C 
BRANCH   3   4
ATOM      4  CD  ARG D 557     -24.749   0.411 -16.173  1.00 35.49     0.116 C 
BRANCH   4   5
ATOM      5  NE  ARG D 557     -24.895  -0.436 -15.019  1.00 35.49    -0.212 N 
ATOM      6  CZ  ARG D 557     -24.078  -1.404 -14.668  1.00 35.49     0.666 C 
ATOM      7  NH1 ARG D 557     -23.008  -1.719 -15.375  1.00 35.49    -0.235 N 
ATOM      8  NH2 ARG D 557     -24.354  -2.056 -13.577  1.00 35.49    -0.235 N 
ATOM      9  HH  ARG D 557     -22.806  -1.302 -16.095  1.00 35.49     0.174 HD
ATOM     10  HH  ARG D 557     -22.510  -2.359 -15.096  1.00 35.49     0.174 HD
ATOM     11  HH  ARG D 557     -25.047  -1.826 -13.137  1.00 35.49     0.174 HD
ATOM     12  HH  ARG D 557     -23.848  -2.685 -13.317  1.00 35.49     0.174 HD
ATOM     13  HE  ARG D 557     -25.597  -0.350 -14.546  1.00 35.49     0.178 HD
ENDBRANCH   4   5
ENDBRANCH   3   4
ENDBRANCH   2   3
ENDBRANCH   1   2
END_RES ARG D 557
BEGIN_RES GLU D 570
REMARK  3 active torsions:
REMARK  status: ('A' for Active; 'I' for Inactive)
REMARK    5  A    between atoms: CA   and  CB  
REMARK    6  A    between atoms: CB   and  CG  
REMARK    7  A    between atoms: CG   and  CD  
ROOT
ATOM     14  CA  GLU D 570     -18.033  -6.348 -13.375  1.00 32.92     0.160 C 
ENDROOT
BRANCH  14  15
ATOM     15  CB  GLU D 570     -19.500  -6.345 -13.794  1.00 32.92     0.043 C 
BRANCH  15  16
ATOM     16  CG  GLU D 570     -20.441  -5.527 -12.986  1.00 32.92     0.100 C 
BRANCH  16  17
ATOM     17  CD  GLU D 570     -21.736  -5.233 -13.707  1.00 32.92     0.185 C 
ATOM     18  OE1 GLU D 570     -22.295  -4.135 -13.524  1.00 32.92    -0.647 OA
ATOM     19  OE2 GLU D 570     -22.204  -6.118 -14.451  1.00 32.92    -0.647 OA
ENDBRANCH  16  17
ENDBRANCH  15  16
ENDBRANCH  14  15
END_RES GLU D 570
ENDMDL
MODEL 9
REMARK VINA RESULT:      -3.5      3.292      4.642
REMARK  4 active torsions:
REMARK  status: ('A' for Active; 'I' for Inactive)
REMARK    1  A    between atoms: C_5  and  C_8 
REMARK    2  A    between atoms: N_9  and  N_11 
REMARK    3  A    between atoms: N_11  and  C_13 
REMARK    4  A    between atoms: O_20  and  S_21 
ROOT
HETATM    1  S   UNL     2     -24.066  -3.715 -10.248  1.00  0.00     0.251 S 
HETATM    2  O   UNL     2     -23.974  -5.075 -10.786  1.00  0.00    -0.572 OA
HETATM    3  O   UNL     2     -23.147  -3.450  -9.150  1.00  0.00    -0.572 OA
HETATM    4  O   UNL     2     -25.424  -3.226 -10.068  1.00  0.00    -0.572 OA
ENDROOT
BRANCH   1   5
HETATM    5  O   UNL     2     -23.474  -2.812 -11.470  1.00  0.00    -0.262 OA
HETATM    6  C   UNL     2     -22.086  -2.873 -11.696  1.00  0.00     0.228 C 
ENDBRANCH   1   5
TORSDOF 4
BEGIN_RES ARG D 557
REMARK  4 active torsions:
REMARK  status: ('A' for Active; 'I' for Inactive)
REMARK    1  A    between atoms: CA   and  CB  
REMARK    2  A    between atoms: CB   and  CG  
REMARK    3  A    between atoms: CG   and  CD  
REMARK    4  A    between atoms: CD   and  NE  
REMARK       I    between atoms: NE   and  CZ  
REMARK       I    between atoms: CZ   and  NH1 
REMARK       I    between atoms: CZ   and  NH2 
ROOT
ATOM      1  CA  ARG D 557     -26.217   2.705 -17.014  1.00 35.49     0.159 C 
ENDROOT
BRANCH   1   2
ATOM      2  CB  ARG D 557     -26.789   1.319 -17.183  1.00 35.49     0.034 C 
BRANCH   2   3
ATOM      3  CG  ARG D 557     -28.244   1.183 -17.045  1.00 35.49     0.027 C 
BRANCH   3   4
ATOM      4  CD  ARG D 557     -28.646  -0.178 -16.622  1.00 35.49     0.116 C 
BRANCH   4   5
ATOM      5  NE  ARG D 557     -27.590  -0.864 -15.926  1.00 35.49    -0.212 N 
ATOM      6  CZ  ARG D 557     -27.334  -2.151 -15.995  1.00 35.49     0.666 C 
ATOM      7  NH1 ARG D 557     -28.057  -2.979 -16.726  1.00 35.49    -0.235 N 
ATOM      8  NH2 ARG D 557     -26.321  -2.599 -15.311  1.00 35.49    -0.235 N 
ATOM      9  HH  ARG D 557     -28.726  -2.706 -17.185  1.00 35.49     0.174 HD
ATOM     10  HH  ARG D 557     -27.841  -3.809 -16.734  1.00 35.49     0.174 HD
ATOM     11  HH  ARG D 557     -25.868  -2.040 -14.854  1.00 35.49     0.174 HD
ATOM     12  HH  ARG D 557     -26.123  -3.423 -15.334  1.00 35.49     0.174 HD
ATOM     13  HE  ARG D 557     -27.120  -0.418 -15.375  1.00 35.49     0.178 HD
ENDBRANCH   4   5
ENDBRANCH   3   4
ENDBRANCH   2   3
ENDBRANCH   1   2
END_RES ARG D 557
BEGIN_RES GLU D 570
REMARK  3 active torsions:
REMARK  status: ('A' for Active; 'I' for Inactive)
REMARK    5  A    between atoms: CA   and  CB  
REMARK    6  A    between atoms: CB   and  CG  
REMARK    7  A    between atoms: CG   and  CD  
ROOT
ATOM     14  CA  GLU D 570     -18.033  -6.348 -13.375  1.00 32.92     0.160 C 
ENDROOT
BRANCH  14  15
ATOM     15  CB  GLU D 570     -19.500  -6.345 -13.794  1.00 32.92     0.043 C 
BRANCH  15  16
ATOM     16  CG  GLU D 570     -19.808  -5.994 -15.204  1.00 32.92     0.100 C 
BRANCH  16  17
ATOM     17  CD  GLU D 570     -21.179  -5.380 -15.373  1.00 32.92     0.185 C 
ATOM     18  OE1 GLU D 570     -21.527  -4.977 -16.499  1.00 32.92    -0.647 OA
ATOM     19  OE2 GLU D 570     -21.905  -5.286 -14.364  1.00 32.92    -0.647 OA
ENDBRANCH  16  17
ENDBRANCH  15  16
ENDBRANCH  14  15
END_RES GLU D 570
ENDMDL
