MODEL 1
REMARK VINA RESULT:      -6.8      0.000      0.000
REMARK  7 active torsions:
REMARK  status: ('A' for Active; 'I' for Inactive)
REMARK    1  A    between atoms: C_1  and  C_2 
REMARK    2  A    between atoms: C_1  and  C_8 
REMARK    3  A    between atoms: C_2  and  CA_3 
REMARK    4  A    between atoms: CA_3  and  C_4 
REMARK    5  A    between atoms: CA_3  and  N_7 
REMARK    6  A    between atoms: C_4  and  OXT_6 
REMARK    7  A    between atoms: C_8  and  N_9 
REMARK       I    between atoms: N_9  and  C_10 
REMARK       I    between atoms: C_10  and  N_12 
ROOT
HETATM    1  C   UNL     1     -22.844  -4.721 -13.623  1.00  0.00     0.022 C 
ENDROOT
BRANCH   1   2
HETATM    2  C   UNL     1     -22.845  -3.584 -14.656  1.00  0.00     0.048 C 
BRANCH   2   3
HETATM    3  CA  UNL     1     -23.345  -2.255 -14.067  1.00  0.00     0.314 C 
BRANCH   3   4
HETATM    4  C   UNL     1     -24.695  -1.817 -14.684  1.00  0.00     0.173 C 
HETATM    5  O   UNL     1     -25.515  -2.597 -15.148  1.00  0.00    -0.648 OA
BRANCH   4   6
HETATM    6  OXT UNL     1     -24.922  -0.487 -14.628  1.00  0.00    -0.775 OA
HETATM    7  HXT UNL     1     -24.799  -0.012 -15.471  1.00  0.00     0.167 HD
ENDBRANCH   4   6
ENDBRANCH   3   4
BRANCH   3   8
HETATM    8  N   UNL     1     -23.507  -2.395 -12.601  1.00  0.00     0.093 N 
HETATM    9  H1  UNL     1     -22.861  -3.125 -12.285  1.00  0.00     0.314 HD
HETATM   10  H2  UNL     1     -24.426  -2.812 -12.426  1.00  0.00     0.314 HD
ENDBRANCH   3   8
ENDBRANCH   2   3
ENDBRANCH   1   2
BRANCH   1  11
HETATM   11  C   UNL     1     -23.866  -5.804 -13.960  1.00  0.00     0.124 C 
BRANCH  11  12
HETATM   12  N   UNL     1     -23.617  -6.381 -15.264  1.00  0.00    -0.343 N 
HETATM   13  C   UNL     1     -24.561  -7.140 -15.895  1.00  0.00     0.313 C 
HETATM   14  O   UNL     1     -25.643  -7.454 -15.423  1.00  0.00    -0.248 OA
HETATM   15  N   UNL     1     -24.163  -7.578 -17.112  1.00  0.00    -0.352 N 
HETATM   16  H   UNL     1     -23.341  -7.234 -17.580  1.00  0.00     0.160 HD
HETATM   17  H   UNL     1     -24.826  -8.135 -17.633  1.00  0.00     0.160 HD
HETATM   18  H   UNL     1     -22.896  -5.970 -15.836  1.00  0.00     0.164 HD
ENDBRANCH  11  12
ENDBRANCH   1  11
TORSDOF 7
BEGIN_RES ARG D 557
REMARK  4 active torsions:
REMARK  status: ('A' for Active; 'I' for Inactive)
REMARK    1  A    between atoms: CA   and  CB  
REMARK    2  A    between atoms: CB   and  CG  
REMARK    3  A    between atoms: CG   and  CD  
REMARK    4  A    between atoms: CD   and  NE  
REMARK       I    between atoms: NE   and  CZ  
REMARK       I    between atoms: CZ   and  NH1 
REMARK       I    between atoms: CZ   and  NH2 
ROOT
ATOM      1  CA  ARG D 557     -26.217   2.705 -17.014  1.00 35.49     0.159 C 
ENDROOT
BRANCH   1   2
ATOM      2  CB  ARG D 557     -26.789   1.319 -17.183  1.00 35.49     0.034 C 
BRANCH   2   3
ATOM      3  CG  ARG D 557     -28.139   1.093 -16.654  1.00 35.49     0.027 C 
BRANCH   3   4
ATOM      4  CD  ARG D 557     -28.776  -0.114 -17.230  1.00 35.49     0.116 C 
BRANCH   4   5
ATOM      5  NE  ARG D 557     -28.142  -1.327 -16.784  1.00 35.49    -0.212 N 
ATOM      6  CZ  ARG D 557     -28.589  -2.546 -16.987  1.00 35.49     0.666 C 
ATOM      7  NH1 ARG D 557     -29.714  -2.791 -17.633  1.00 35.49    -0.235 N 
ATOM      8  NH2 ARG D 557     -27.872  -3.532 -16.530  1.00 35.49    -0.235 N 
ATOM      9  HH  ARG D 557     -30.200  -2.158 -17.944  1.00 35.49     0.174 HD
ATOM     10  HH  ARG D 557     -29.954  -3.607 -17.737  1.00 35.49     0.174 HD
ATOM     11  HH  ARG D 557     -27.146  -3.344 -16.123  1.00 35.49     0.174 HD
ATOM     12  HH  ARG D 557     -28.126  -4.332 -16.645  1.00 35.49     0.174 HD
ATOM     13  HE  ARG D 557     -27.449  -1.259 -16.297  1.00 35.49     0.178 HD
ENDBRANCH   4   5
ENDBRANCH   3   4
ENDBRANCH   2   3
ENDBRANCH   1   2
END_RES ARG D 557
BEGIN_RES GLU D 570
REMARK  3 active torsions:
REMARK  status: ('A' for Active; 'I' for Inactive)
REMARK    5  A    between atoms: CA   and  CB  
REMARK    6  A    between atoms: CB   and  CG  
REMARK    7  A    between atoms: CG   and  CD  
ROOT
ATOM     14  CA  GLU D 570     -18.033  -6.348 -13.375  1.00 32.92     0.160 C 
ENDROOT
BRANCH  14  15
ATOM     15  CB  GLU D 570     -19.500  -6.345 -13.794  1.00 32.92     0.043 C 
BRANCH  15  16
ATOM     16  CG  GLU D 570     -20.080  -7.629 -14.267  1.00 32.92     0.100 C 
BRANCH  16  17
ATOM     17  CD  GLU D 570     -20.738  -7.515 -15.622  1.00 32.92     0.185 C 
ATOM     18  OE1 GLU D 570     -21.335  -8.503 -16.090  1.00 32.92    -0.647 OA
ATOM     19  OE2 GLU D 570     -20.641  -6.430 -16.229  1.00 32.92    -0.647 OA
ENDBRANCH  16  17
ENDBRANCH  15  16
ENDBRANCH  14  15
END_RES GLU D 570
ENDMDL
MODEL 2
REMARK VINA RESULT:      -6.7      1.283      3.347
REMARK  7 active torsions:
REMARK  status: ('A' for Active; 'I' for Inactive)
REMARK    1  A    between atoms: C_1  and  C_2 
REMARK    2  A    between atoms: C_1  and  C_8 
REMARK    3  A    between atoms: C_2  and  CA_3 
REMARK    4  A    between atoms: CA_3  and  C_4 
REMARK    5  A    between atoms: CA_3  and  N_7 
REMARK    6  A    between atoms: C_4  and  OXT_6 
REMARK    7  A    between atoms: C_8  and  N_9 
REMARK       I    between atoms: N_9  and  C_10 
REMARK       I    between atoms: C_10  and  N_12 
ROOT
HETATM    1  C   UNL     1     -23.104  -3.890 -12.583  1.00  0.00     0.022 C 
ENDROOT
BRANCH   1   2
HETATM    2  C   UNL     1     -23.562  -5.338 -12.809  1.00  0.00     0.048 C 
BRANCH   2   3
HETATM    3  CA  UNL     1     -23.319  -5.814 -14.250  1.00  0.00     0.314 C 
BRANCH   3   4
HETATM    4  C   UNL     1     -24.642  -6.069 -15.011  1.00  0.00     0.173 C 
HETATM    5  O   UNL     1     -25.110  -7.182 -15.205  1.00  0.00    -0.648 OA
BRANCH   4   6
HETATM    6  OXT UNL     1     -25.274  -4.945 -15.413  1.00  0.00    -0.775 OA
HETATM    7  HXT UNL     1     -26.092  -5.092 -15.924  1.00  0.00     0.167 HD
ENDBRANCH   4   6
ENDBRANCH   3   4
BRANCH   3   8
HETATM    8  N   UNL     1     -22.532  -4.792 -14.980  1.00  0.00     0.093 N 
HETATM    9  H1  UNL     1     -21.979  -5.276 -15.694  1.00  0.00     0.314 HD
HETATM   10  H2  UNL     1     -21.817  -4.432 -14.342  1.00  0.00     0.314 HD
ENDBRANCH   3   8
ENDBRANCH   2   3
ENDBRANCH   1   2
BRANCH   1  11
HETATM   11  C   UNL     1     -24.267  -2.903 -12.643  1.00  0.00     0.124 C 
BRANCH  11  12
HETATM   12  N   UNL     1     -23.970  -1.785 -13.512  1.00  0.00    -0.343 N 
HETATM   13  C   UNL     1     -24.771  -1.481 -14.575  1.00  0.00     0.313 C 
HETATM   14  O   UNL     1     -25.745  -2.128 -14.931  1.00  0.00    -0.248 OA
HETATM   15  N   UNL     1     -24.352  -0.394 -15.263  1.00  0.00    -0.352 N 
HETATM   16  H   UNL     1     -23.640   0.231 -14.925  1.00  0.00     0.160 HD
HETATM   17  H   UNL     1     -24.915  -0.112 -16.054  1.00  0.00     0.160 HD
HETATM   18  H   UNL     1     -23.374  -1.053 -13.158  1.00  0.00     0.164 HD
ENDBRANCH  11  12
ENDBRANCH   1  11
TORSDOF 7
BEGIN_RES ARG D 557
REMARK  4 active torsions:
REMARK  status: ('A' for Active; 'I' for Inactive)
REMARK    1  A    between atoms: CA   and  CB  
REMARK    2  A    between atoms: CB   and  CG  
REMARK    3  A    between atoms: CG   and  CD  
REMARK    4  A    between atoms: CD   and  NE  
REMARK       I    between atoms: NE   and  CZ  
REMARK       I    between atoms: CZ   and  NH1 
REMARK       I    between atoms: CZ   and  NH2 
ROOT
ATOM      1  CA  ARG D 557     -26.217   2.705 -17.014  1.00 35.49     0.159 C 
ENDROOT
BRANCH   1   2
ATOM      2  CB  ARG D 557     -26.789   1.319 -17.183  1.00 35.49     0.034 C 
BRANCH   2   3
ATOM      3  CG  ARG D 557     -28.150   1.100 -16.679  1.00 35.49     0.027 C 
BRANCH   3   4
ATOM      4  CD  ARG D 557     -28.775  -0.115 -17.250  1.00 35.49     0.116 C 
BRANCH   4   5
ATOM      5  NE  ARG D 557     -28.136  -1.320 -16.790  1.00 35.49    -0.212 N 
ATOM      6  CZ  ARG D 557     -28.574  -2.544 -16.983  1.00 35.49     0.666 C 
ATOM      7  NH1 ARG D 557     -29.696  -2.801 -17.631  1.00 35.49    -0.235 N 
ATOM      8  NH2 ARG D 557     -27.854  -3.521 -16.514  1.00 35.49    -0.235 N 
ATOM      9  HH  ARG D 557     -30.184  -2.174 -17.951  1.00 35.49     0.174 HD
ATOM     10  HH  ARG D 557     -29.931  -3.619 -17.729  1.00 35.49     0.174 HD
ATOM     11  HH  ARG D 557     -27.131  -3.325 -16.106  1.00 35.49     0.174 HD
ATOM     12  HH  ARG D 557     -28.103  -4.324 -16.622  1.00 35.49     0.174 HD
ATOM     13  HE  ARG D 557     -27.445  -1.244 -16.301  1.00 35.49     0.178 HD
ENDBRANCH   4   5
ENDBRANCH   3   4
ENDBRANCH   2   3
ENDBRANCH   1   2
END_RES ARG D 557
BEGIN_RES GLU D 570
REMARK  3 active torsions:
REMARK  status: ('A' for Active; 'I' for Inactive)
REMARK    5  A    between atoms: CA   and  CB  
REMARK    6  A    between atoms: CB   and  CG  
REMARK    7  A    between atoms: CG   and  CD  
ROOT
ATOM     14  CA  GLU D 570     -18.033  -6.348 -13.375  1.00 32.92     0.160 C 
ENDROOT
BRANCH  14  15
ATOM     15  CB  GLU D 570     -19.500  -6.345 -13.794  1.00 32.92     0.043 C 
BRANCH  15  16
ATOM     16  CG  GLU D 570     -20.093  -7.639 -14.219  1.00 32.92     0.100 C 
BRANCH  16  17
ATOM     17  CD  GLU D 570     -20.494  -7.654 -15.675  1.00 32.92     0.185 C 
ATOM     18  OE1 GLU D 570     -20.783  -8.740 -16.213  1.00 32.92    -0.647 OA
ATOM     19  OE2 GLU D 570     -20.504  -6.569 -16.290  1.00 32.92    -0.647 OA
ENDBRANCH  16  17
ENDBRANCH  15  16
ENDBRANCH  14  15
END_RES GLU D 570
ENDMDL
MODEL 3
REMARK VINA RESULT:      -6.7      2.336      3.382
REMARK  7 active torsions:
REMARK  status: ('A' for Active; 'I' for Inactive)
REMARK    1  A    between atoms: C_1  and  C_2 
REMARK    2  A    between atoms: C_1  and  C_8 
REMARK    3  A    between atoms: C_2  and  CA_3 
REMARK    4  A    between atoms: CA_3  and  C_4 
REMARK    5  A    between atoms: CA_3  and  N_7 
REMARK    6  A    between atoms: C_4  and  OXT_6 
REMARK    7  A    between atoms: C_8  and  N_9 
REMARK       I    between atoms: N_9  and  C_10 
REMARK       I    between atoms: C_10  and  N_12 
ROOT
HETATM    1  C   UNL     1     -22.439  -3.719 -12.513  1.00  0.00     0.022 C 
ENDROOT
BRANCH   1   2
HETATM    2  C   UNL     1     -23.117  -2.427 -12.989  1.00  0.00     0.048 C 
BRANCH   2   3
HETATM    3  CA  UNL     1     -23.716  -2.560 -14.398  1.00  0.00     0.314 C 
BRANCH   3   4
HETATM    4  C   UNL     1     -25.047  -1.786 -14.541  1.00  0.00     0.173 C 
HETATM    5  O   UNL     1     -26.150  -2.310 -14.464  1.00  0.00    -0.648 OA
BRANCH   4   6
HETATM    6  OXT UNL     1     -24.896  -0.455 -14.719  1.00  0.00    -0.775 OA
HETATM    7  HXT UNL     1     -23.978  -0.132 -14.653  1.00  0.00     0.167 HD
ENDBRANCH   4   6
ENDBRANCH   3   4
BRANCH   3   8
HETATM    8  N   UNL     1     -22.748  -2.045 -15.395  1.00  0.00     0.093 N 
HETATM    9  H1  UNL     1     -22.196  -1.311 -14.943  1.00  0.00     0.314 HD
HETATM   10  H2  UNL     1     -23.275  -1.530 -16.106  1.00  0.00     0.314 HD
ENDBRANCH   3   8
ENDBRANCH   2   3
ENDBRANCH   1   2
BRANCH   1  11
HETATM   11  C   UNL     1     -23.430  -4.685 -11.869  1.00  0.00     0.124 C 
BRANCH  11  12
HETATM   12  N   UNL     1     -23.410  -4.580 -10.425  1.00  0.00    -0.343 N 
HETATM   13  C   UNL     1     -24.363  -3.869  -9.753  1.00  0.00     0.313 C 
HETATM   14  O   UNL     1     -25.257  -3.221 -10.275  1.00  0.00    -0.248 OA
HETATM   15  N   UNL     1     -24.198  -3.898  -8.410  1.00  0.00    -0.352 N 
HETATM   16  H   UNL     1     -23.558  -4.521  -7.947  1.00  0.00     0.160 HD
HETATM   17  H   UNL     1     -24.882  -3.399  -7.858  1.00  0.00     0.160 HD
HETATM   18  H   UNL     1     -22.900  -5.277  -9.905  1.00  0.00     0.164 HD
ENDBRANCH  11  12
ENDBRANCH   1  11
TORSDOF 7
BEGIN_RES ARG D 557
REMARK  4 active torsions:
REMARK  status: ('A' for Active; 'I' for Inactive)
REMARK    1  A    between atoms: CA   and  CB  
REMARK    2  A    between atoms: CB   and  CG  
REMARK    3  A    between atoms: CG   and  CD  
REMARK    4  A    between atoms: CD   and  NE  
REMARK       I    between atoms: NE   and  CZ  
REMARK       I    between atoms: CZ   and  NH1 
REMARK       I    between atoms: CZ   and  NH2 
ROOT
ATOM      1  CA  ARG D 557     -26.217   2.705 -17.014  1.00 35.49     0.159 C 
ENDROOT
BRANCH   1   2
ATOM      2  CB  ARG D 557     -26.789   1.319 -17.183  1.00 35.49     0.034 C 
BRANCH   2   3
ATOM      3  CG  ARG D 557     -28.233   1.226 -17.432  1.00 35.49     0.027 C 
BRANCH   3   4
ATOM      4  CD  ARG D 557     -28.910   0.310 -16.487  1.00 35.49     0.116 C 
BRANCH   4   5
ATOM      5  NE  ARG D 557     -28.205  -0.937 -16.340  1.00 35.49    -0.212 N 
ATOM      6  CZ  ARG D 557     -28.577  -2.093 -16.842  1.00 35.49     0.666 C 
ATOM      7  NH1 ARG D 557     -29.683  -2.237 -17.548  1.00 35.49    -0.235 N 
ATOM      8  NH2 ARG D 557     -27.803  -3.117 -16.627  1.00 35.49    -0.235 N 
ATOM      9  HH  ARG D 557     -30.206  -1.576 -17.703  1.00 35.49     0.174 HD
ATOM     10  HH  ARG D 557     -29.873  -3.015 -17.853  1.00 35.49     0.174 HD
ATOM     11  HH  ARG D 557     -27.091  -2.993 -16.174  1.00 35.49     0.174 HD
ATOM     12  HH  ARG D 557     -28.007  -3.879 -16.938  1.00 35.49     0.174 HD
ATOM     13  HE  ARG D 557     -27.519  -0.950 -15.838  1.00 35.49     0.178 HD
ENDBRANCH   4   5
ENDBRANCH   3   4
ENDBRANCH   2   3
ENDBRANCH   1   2
END_RES ARG D 557
BEGIN_RES GLU D 570
REMARK  3 active torsions:
REMARK  status: ('A' for Active; 'I' for Inactive)
REMARK    5  A    between atoms: CA   and  CB  
REMARK    6  A    between atoms: CB   and  CG  
REMARK    7  A    between atoms: CG   and  CD  
ROOT
ATOM     14  CA  GLU D 570     -18.033  -6.348 -13.375  1.00 32.92     0.160 C 
ENDROOT
BRANCH  14  15
ATOM     15  CB  GLU D 570     -19.500  -6.345 -13.794  1.00 32.92     0.043 C 
BRANCH  15  16
ATOM     16  CG  GLU D 570     -19.811  -5.958 -15.194  1.00 32.92     0.100 C 
BRANCH  16  17
ATOM     17  CD  GLU D 570     -21.279  -5.675 -15.415  1.00 32.92     0.185 C 
ATOM     18  OE1 GLU D 570     -22.125  -6.383 -14.837  1.00 32.92    -0.647 OA
ATOM     19  OE2 GLU D 570     -21.585  -4.746 -16.188  1.00 32.92    -0.647 OA
ENDBRANCH  16  17
ENDBRANCH  15  16
ENDBRANCH  14  15
END_RES GLU D 570
ENDMDL
MODEL 4
REMARK VINA RESULT:      -6.6      3.152      4.211
REMARK  7 active torsions:
REMARK  status: ('A' for Active; 'I' for Inactive)
REMARK    1  A    between atoms: C_1  and  C_2 
REMARK    2  A    between atoms: C_1  and  C_8 
REMARK    3  A    between atoms: C_2  and  CA_3 
REMARK    4  A    between atoms: CA_3  and  C_4 
REMARK    5  A    between atoms: CA_3  and  N_7 
REMARK    6  A    between atoms: C_4  and  OXT_6 
REMARK    7  A    between atoms: C_8  and  N_9 
REMARK       I    between atoms: N_9  and  C_10 
REMARK       I    between atoms: C_10  and  N_12 
ROOT
HETATM    1  C   UNL     1     -24.278  -3.220 -11.983  1.00  0.00     0.022 C 
ENDROOT
BRANCH   1   2
HETATM    2  C   UNL     1     -23.703  -4.385 -11.166  1.00  0.00     0.048 C 
BRANCH   2   3
HETATM    3  CA  UNL     1     -24.330  -4.488  -9.767  1.00  0.00     0.314 C 
BRANCH   3   4
HETATM    4  C   UNL     1     -23.334  -4.093  -8.651  1.00  0.00     0.173 C 
HETATM    5  O   UNL     1     -22.217  -3.642  -8.866  1.00  0.00    -0.648 OA
BRANCH   4   6
HETATM    6  OXT UNL     1     -23.818  -4.246  -7.399  1.00  0.00    -0.775 OA
HETATM    7  HXT UNL     1     -24.288  -3.470  -7.041  1.00  0.00     0.167 HD
ENDBRANCH   4   6
ENDBRANCH   3   4
BRANCH   3   8
HETATM    8  N   UNL     1     -25.515  -3.602  -9.692  1.00  0.00     0.093 N 
HETATM    9  H1  UNL     1     -26.238  -3.996 -10.301  1.00  0.00     0.314 HD
HETATM   10  H2  UNL     1     -25.278  -2.722 -10.159  1.00  0.00     0.314 HD
ENDBRANCH   3   8
ENDBRANCH   2   3
ENDBRANCH   1   2
BRANCH   1  11
HETATM   11  C   UNL     1     -23.805  -3.247 -13.435  1.00  0.00     0.124 C 
BRANCH  11  12
HETATM   12  N   UNL     1     -23.791  -1.920 -14.013  1.00  0.00    -0.343 N 
HETATM   13  C   UNL     1     -24.859  -1.445 -14.721  1.00  0.00     0.313 C 
HETATM   14  O   UNL     1     -25.868  -2.081 -14.986  1.00  0.00    -0.248 OA
HETATM   15  N   UNL     1     -24.679  -0.181 -15.169  1.00  0.00    -0.352 N 
HETATM   16  H   UNL     1     -23.925   0.410 -14.861  1.00  0.00     0.160 HD
HETATM   17  H   UNL     1     -25.442   0.230 -15.688  1.00  0.00     0.160 HD
HETATM   18  H   UNL     1     -23.150  -1.242 -13.633  1.00  0.00     0.164 HD
ENDBRANCH  11  12
ENDBRANCH   1  11
TORSDOF 7
BEGIN_RES ARG D 557
REMARK  4 active torsions:
REMARK  status: ('A' for Active; 'I' for Inactive)
REMARK    1  A    between atoms: CA   and  CB  
REMARK    2  A    between atoms: CB   and  CG  
REMARK    3  A    between atoms: CG   and  CD  
REMARK    4  A    between atoms: CD   and  NE  
REMARK       I    between atoms: NE   and  CZ  
REMARK       I    between atoms: CZ   and  NH1 
REMARK       I    between atoms: CZ   and  NH2 
ROOT
ATOM      1  CA  ARG D 557     -26.217   2.705 -17.014  1.00 35.49     0.159 C 
ENDROOT
BRANCH   1   2
ATOM      2  CB  ARG D 557     -26.789   1.319 -17.183  1.00 35.49     0.034 C 
BRANCH   2   3
ATOM      3  CG  ARG D 557     -28.143   1.095 -16.661  1.00 35.49     0.027 C 
BRANCH   3   4
ATOM      4  CD  ARG D 557     -28.792  -0.089 -17.268  1.00 35.49     0.116 C 
BRANCH   4   5
ATOM      5  NE  ARG D 557     -28.181  -1.321 -16.843  1.00 35.49    -0.212 N 
ATOM      6  CZ  ARG D 557     -28.668  -2.527 -17.035  1.00 35.49     0.666 C 
ATOM      7  NH1 ARG D 557     -29.818  -2.738 -17.647  1.00 35.49    -0.235 N 
ATOM      8  NH2 ARG D 557     -27.967  -3.533 -16.600  1.00 35.49    -0.235 N 
ATOM      9  HH  ARG D 557     -30.295  -2.090 -17.943  1.00 35.49     0.174 HD
ATOM     10  HH  ARG D 557     -30.084  -3.546 -17.746  1.00 35.49     0.174 HD
ATOM     11  HH  ARG D 557     -27.224  -3.367 -16.215  1.00 35.49     0.174 HD
ATOM     12  HH  ARG D 557     -28.247  -4.326 -16.709  1.00 35.49     0.174 HD
ATOM     13  HE  ARG D 557     -27.472  -1.274 -16.376  1.00 35.49     0.178 HD
ENDBRANCH   4   5
ENDBRANCH   3   4
ENDBRANCH   2   3
ENDBRANCH   1   2
END_RES ARG D 557
BEGIN_RES GLU D 570
REMARK  3 active torsions:
REMARK  status: ('A' for Active; 'I' for Inactive)
REMARK    5  A    between atoms: CA   and  CB  
REMARK    6  A    between atoms: CB   and  CG  
REMARK    7  A    between atoms: CG   and  CD  
ROOT
ATOM     14  CA  GLU D 570     -18.033  -6.348 -13.375  1.00 32.92     0.160 C 
ENDROOT
BRANCH  14  15
ATOM     15  CB  GLU D 570     -19.500  -6.345 -13.794  1.00 32.92     0.043 C 
BRANCH  15  16
ATOM     16  CG  GLU D 570     -19.814  -5.927 -15.185  1.00 32.92     0.100 C 
BRANCH  16  17
ATOM     17  CD  GLU D 570     -21.280  -5.629 -15.394  1.00 32.92     0.185 C 
ATOM     18  OE1 GLU D 570     -22.130  -6.351 -14.838  1.00 32.92    -0.647 OA
ATOM     19  OE2 GLU D 570     -21.583  -4.674 -16.136  1.00 32.92    -0.647 OA
ENDBRANCH  16  17
ENDBRANCH  15  16
ENDBRANCH  14  15
END_RES GLU D 570
ENDMDL
MODEL 5
REMARK VINA RESULT:      -6.5      2.962      5.117
REMARK  7 active torsions:
REMARK  status: ('A' for Active; 'I' for Inactive)
REMARK    1  A    between atoms: C_1  and  C_2 
REMARK    2  A    between atoms: C_1  and  C_8 
REMARK    3  A    between atoms: C_2  and  CA_3 
REMARK    4  A    between atoms: CA_3  and  C_4 
REMARK    5  A    between atoms: CA_3  and  N_7 
REMARK    6  A    between atoms: C_4  and  OXT_6 
REMARK    7  A    between atoms: C_8  and  N_9 
REMARK       I    between atoms: N_9  and  C_10 
REMARK       I    between atoms: C_10  and  N_12 
ROOT
HETATM    1  C   UNL     1     -28.018  -5.886 -18.438  1.00  0.00     0.022 C 
ENDROOT
BRANCH   1   2
HETATM    2  C   UNL     1     -29.520  -5.677 -18.200  1.00  0.00     0.048 C 
BRANCH   2   3
HETATM    3  CA  UNL     1     -29.803  -4.753 -17.004  1.00  0.00     0.314 C 
BRANCH   3   4
HETATM    4  C   UNL     1     -30.440  -3.413 -17.442  1.00  0.00     0.173 C 
HETATM    5  O   UNL     1     -31.643  -3.249 -17.590  1.00  0.00    -0.648 OA
BRANCH   4   6
HETATM    6  OXT UNL     1     -29.553  -2.408 -17.609  1.00  0.00    -0.775 OA
HETATM    7  HXT UNL     1     -29.513  -1.767 -16.874  1.00  0.00     0.167 HD
ENDBRANCH   4   6
ENDBRANCH   3   4
BRANCH   3   8
HETATM    8  N   UNL     1     -30.718  -5.437 -16.060  1.00  0.00     0.093 N 
HETATM    9  H1  UNL     1     -31.116  -6.248 -16.542  1.00  0.00     0.314 HD
HETATM   10  H2  UNL     1     -31.532  -4.832 -15.920  1.00  0.00     0.314 HD
ENDBRANCH   3   8
ENDBRANCH   2   3
ENDBRANCH   1   2
BRANCH   1  11
HETATM   11  C   UNL     1     -27.247  -6.056 -17.131  1.00  0.00     0.124 C 
BRANCH  11  12
HETATM   12  N   UNL     1     -25.915  -6.575 -17.364  1.00  0.00    -0.343 N 
HETATM   13  C   UNL     1     -25.192  -7.148 -16.357  1.00  0.00     0.313 C 
HETATM   14  O   UNL     1     -25.546  -7.224 -15.191  1.00  0.00    -0.248 OA
HETATM   15  N   UNL     1     -23.981  -7.594 -16.762  1.00  0.00    -0.352 N 
HETATM   16  H   UNL     1     -23.714  -7.665 -17.730  1.00  0.00     0.160 HD
HETATM   17  H   UNL     1     -23.404  -8.041 -16.062  1.00  0.00     0.160 HD
HETATM   18  H   UNL     1     -25.653  -6.803 -18.310  1.00  0.00     0.164 HD
ENDBRANCH  11  12
ENDBRANCH   1  11
TORSDOF 7
BEGIN_RES ARG D 557
REMARK  4 active torsions:
REMARK  status: ('A' for Active; 'I' for Inactive)
REMARK    1  A    between atoms: CA   and  CB  
REMARK    2  A    between atoms: CB   and  CG  
REMARK    3  A    between atoms: CG   and  CD  
REMARK    4  A    between atoms: CD   and  NE  
REMARK       I    between atoms: NE   and  CZ  
REMARK       I    between atoms: CZ   and  NH1 
REMARK       I    between atoms: CZ   and  NH2 
ROOT
ATOM      1  CA  ARG D 557     -26.217   2.705 -17.014  1.00 35.49     0.159 C 
ENDROOT
BRANCH   1   2
ATOM      2  CB  ARG D 557     -26.789   1.319 -17.183  1.00 35.49     0.034 C 
BRANCH   2   3
ATOM      3  CG  ARG D 557     -25.834   0.204 -17.173  1.00 35.49     0.027 C 
BRANCH   3   4
ATOM      4  CD  ARG D 557     -24.737   0.410 -16.200  1.00 35.49     0.116 C 
BRANCH   4   5
ATOM      5  NE  ARG D 557     -24.885  -0.421 -15.034  1.00 35.49    -0.212 N 
ATOM      6  CZ  ARG D 557     -24.076  -1.394 -14.676  1.00 35.49     0.666 C 
ATOM      7  NH1 ARG D 557     -23.014  -1.730 -15.385  1.00 35.49    -0.235 N 
ATOM      8  NH2 ARG D 557     -24.352  -2.029 -13.575  1.00 35.49    -0.235 N 
ATOM      9  HH  ARG D 557     -22.813  -1.324 -16.112  1.00 35.49     0.174 HD
ATOM     10  HH  ARG D 557     -22.522  -2.371 -15.101  1.00 35.49     0.174 HD
ATOM     11  HH  ARG D 557     -25.040  -1.786 -13.134  1.00 35.49     0.174 HD
ATOM     12  HH  ARG D 557     -23.852  -2.660 -13.310  1.00 35.49     0.174 HD
ATOM     13  HE  ARG D 557     -25.582  -0.321 -14.558  1.00 35.49     0.178 HD
ENDBRANCH   4   5
ENDBRANCH   3   4
ENDBRANCH   2   3
ENDBRANCH   1   2
END_RES ARG D 557
BEGIN_RES GLU D 570
REMARK  3 active torsions:
REMARK  status: ('A' for Active; 'I' for Inactive)
REMARK    5  A    between atoms: CA   and  CB  
REMARK    6  A    between atoms: CB   and  CG  
REMARK    7  A    between atoms: CG   and  CD  
ROOT
ATOM     14  CA  GLU D 570     -18.033  -6.348 -13.375  1.00 32.92     0.160 C 
ENDROOT
BRANCH  14  15
ATOM     15  CB  GLU D 570     -19.500  -6.345 -13.794  1.00 32.92     0.043 C 
BRANCH  15  16
ATOM     16  CG  GLU D 570     -20.435  -5.500 -13.007  1.00 32.92     0.100 C 
BRANCH  16  17
ATOM     17  CD  GLU D 570     -21.751  -5.263 -13.712  1.00 32.92     0.185 C 
ATOM     18  OE1 GLU D 570     -22.192  -6.140 -14.479  1.00 32.92    -0.647 OA
ATOM     19  OE2 GLU D 570     -22.338  -4.183 -13.507  1.00 32.92    -0.647 OA
ENDBRANCH  16  17
ENDBRANCH  15  16
ENDBRANCH  14  15
END_RES GLU D 570
ENDMDL
MODEL 6
REMARK VINA RESULT:      -6.5      2.749      3.878
REMARK  7 active torsions:
REMARK  status: ('A' for Active; 'I' for Inactive)
REMARK    1  A    between atoms: C_1  and  C_2 
REMARK    2  A    between atoms: C_1  and  C_8 
REMARK    3  A    between atoms: C_2  and  CA_3 
REMARK    4  A    between atoms: CA_3  and  C_4 
REMARK    5  A    between atoms: CA_3  and  N_7 
REMARK    6  A    between atoms: C_4  and  OXT_6 
REMARK    7  A    between atoms: C_8  and  N_9 
REMARK       I    between atoms: N_9  and  C_10 
REMARK       I    between atoms: C_10  and  N_12 
ROOT
HETATM    1  C   UNL     1     -22.963  -3.919 -12.794  1.00  0.00     0.022 C 
ENDROOT
BRANCH   1   2
HETATM    2  C   UNL     1     -23.084  -4.577 -11.411  1.00  0.00     0.048 C 
BRANCH   2   3
HETATM    3  CA  UNL     1     -23.032  -3.553 -10.266  1.00  0.00     0.314 C 
BRANCH   3   4
HETATM    4  C   UNL     1     -24.351  -3.515  -9.459  1.00  0.00     0.173 C 
HETATM    5  O   UNL     1     -25.423  -3.153  -9.926  1.00  0.00    -0.648 OA
BRANCH   4   6
HETATM    6  OXT UNL     1     -24.235  -3.961  -8.189  1.00  0.00    -0.775 OA
HETATM    7  HXT UNL     1     -23.370  -3.795  -7.771  1.00  0.00     0.167 HD
ENDBRANCH   4   6
ENDBRANCH   3   4
BRANCH   3   8
HETATM    8  N   UNL     1     -21.917  -3.892  -9.352  1.00  0.00     0.093 N 
HETATM    9  H1  UNL     1     -22.000  -3.295  -8.524  1.00  0.00     0.314 HD
HETATM   10  H2  UNL     1     -21.047  -3.566  -9.783  1.00  0.00     0.314 HD
ENDBRANCH   3   8
ENDBRANCH   2   3
ENDBRANCH   1   2
BRANCH   1  11
HETATM   11  C   UNL     1     -24.269  -3.262 -13.234  1.00  0.00     0.124 C 
BRANCH  11  12
HETATM   12  N   UNL     1     -24.036  -1.959 -13.819  1.00  0.00    -0.343 N 
HETATM   13  C   UNL     1     -24.914  -1.418 -14.715  1.00  0.00     0.313 C 
HETATM   14  O   UNL     1     -25.911  -1.975 -15.149  1.00  0.00    -0.248 OA
HETATM   15  N   UNL     1     -24.547  -0.187 -15.141  1.00  0.00    -0.352 N 
HETATM   16  H   UNL     1     -23.812   0.348 -14.710  1.00  0.00     0.160 HD
HETATM   17  H   UNL     1     -25.166   0.271 -15.796  1.00  0.00     0.160 HD
HETATM   18  H   UNL     1     -23.417  -1.325 -13.339  1.00  0.00     0.164 HD
ENDBRANCH  11  12
ENDBRANCH   1  11
TORSDOF 7
BEGIN_RES ARG D 557
REMARK  4 active torsions:
REMARK  status: ('A' for Active; 'I' for Inactive)
REMARK    1  A    between atoms: CA   and  CB  
REMARK    2  A    between atoms: CB   and  CG  
REMARK    3  A    between atoms: CG   and  CD  
REMARK    4  A    between atoms: CD   and  NE  
REMARK       I    between atoms: NE   and  CZ  
REMARK       I    between atoms: CZ   and  NH1 
REMARK       I    between atoms: CZ   and  NH2 
ROOT
ATOM      1  CA  ARG D 557     -26.217   2.705 -17.014  1.00 35.49     0.159 C 
ENDROOT
BRANCH   1   2
ATOM      2  CB  ARG D 557     -26.789   1.319 -17.183  1.00 35.49     0.034 C 
BRANCH   2   3
ATOM      3  CG  ARG D 557     -28.148   1.099 -16.675  1.00 35.49     0.027 C 
BRANCH   3   4
ATOM      4  CD  ARG D 557     -28.803  -0.071 -17.303  1.00 35.49     0.116 C 
BRANCH   4   5
ATOM      5  NE  ARG D 557     -28.207  -1.314 -16.889  1.00 35.49    -0.212 N 
ATOM      6  CZ  ARG D 557     -28.720  -2.510 -17.070  1.00 35.49     0.666 C 
ATOM      7  NH1 ARG D 557     -29.886  -2.700 -17.659  1.00 35.49    -0.235 N 
ATOM      8  NH2 ARG D 557     -28.029  -3.530 -16.648  1.00 35.49    -0.235 N 
ATOM      9  HH  ARG D 557     -30.356  -2.044 -17.946  1.00 35.49     0.174 HD
ATOM     10  HH  ARG D 557     -30.169  -3.503 -17.751  1.00 35.49     0.174 HD
ATOM     11  HH  ARG D 557     -27.276  -3.377 -16.278  1.00 35.49     0.174 HD
ATOM     12  HH  ARG D 557     -28.326  -4.317 -16.750  1.00 35.49     0.174 HD
ATOM     13  HE  ARG D 557     -27.487  -1.280 -16.436  1.00 35.49     0.178 HD
ENDBRANCH   4   5
ENDBRANCH   3   4
ENDBRANCH   2   3
ENDBRANCH   1   2
END_RES ARG D 557
BEGIN_RES GLU D 570
REMARK  3 active torsions:
REMARK  status: ('A' for Active; 'I' for Inactive)
REMARK    5  A    between atoms: CA   and  CB  
REMARK    6  A    between atoms: CB   and  CG  
REMARK    7  A    between atoms: CG   and  CD  
ROOT
ATOM     14  CA  GLU D 570     -18.033  -6.348 -13.375  1.00 32.92     0.160 C 
ENDROOT
BRANCH  14  15
ATOM     15  CB  GLU D 570     -19.500  -6.345 -13.794  1.00 32.92     0.043 C 
BRANCH  15  16
ATOM     16  CG  GLU D 570     -19.821  -5.851 -15.158  1.00 32.92     0.100 C 
BRANCH  16  17
ATOM     17  CD  GLU D 570     -21.299  -5.901 -15.470  1.00 32.92     0.185 C 
ATOM     18  OE1 GLU D 570     -21.752  -5.171 -16.373  1.00 32.92    -0.647 OA
ATOM     19  OE2 GLU D 570     -22.014  -6.665 -14.792  1.00 32.92    -0.647 OA
ENDBRANCH  16  17
ENDBRANCH  15  16
ENDBRANCH  14  15
END_RES GLU D 570
ENDMDL
MODEL 7
REMARK VINA RESULT:      -6.4      4.805      5.935
REMARK  7 active torsions:
REMARK  status: ('A' for Active; 'I' for Inactive)
REMARK    1  A    between atoms: C_1  and  C_2 
REMARK    2  A    between atoms: C_1  and  C_8 
REMARK    3  A    between atoms: C_2  and  CA_3 
REMARK    4  A    between atoms: CA_3  and  C_4 
REMARK    5  A    between atoms: CA_3  and  N_7 
REMARK    6  A    between atoms: C_4  and  OXT_6 
REMARK    7  A    between atoms: C_8  and  N_9 
REMARK       I    between atoms: N_9  and  C_10 
REMARK       I    between atoms: C_10  and  N_12 
ROOT
HETATM    1  C   UNL     1     -20.997  -4.210  -9.683  1.00  0.00     0.022 C 
ENDROOT
BRANCH   1   2
HETATM    2  C   UNL     1     -22.448  -4.704  -9.769  1.00  0.00     0.048 C 
BRANCH   2   3
HETATM    3  CA  UNL     1     -23.451  -3.681  -9.215  1.00  0.00     0.314 C 
BRANCH   3   4
HETATM    4  C   UNL     1     -24.661  -3.481 -10.159  1.00  0.00     0.173 C 
HETATM    5  O   UNL     1     -25.754  -3.077  -9.786  1.00  0.00    -0.648 OA
BRANCH   4   6
HETATM    6  OXT UNL     1     -24.400  -3.751 -11.457  1.00  0.00    -0.775 OA
HETATM    7  HXT UNL     1     -25.180  -3.748 -12.043  1.00  0.00     0.167 HD
ENDBRANCH   4   6
ENDBRANCH   3   4
BRANCH   3   8
HETATM    8  N   UNL     1     -23.941  -4.137  -7.893  1.00  0.00     0.093 N 
HETATM    9  H1  UNL     1     -23.356  -3.697  -7.176  1.00  0.00     0.314 HD
HETATM   10  H2  UNL     1     -23.710  -5.130  -7.799  1.00  0.00     0.314 HD
ENDBRANCH   3   8
ENDBRANCH   2   3
ENDBRANCH   1   2
BRANCH   1  11
HETATM   11  C   UNL     1     -20.523  -4.066  -8.239  1.00  0.00     0.124 C 
BRANCH  11  12
HETATM   12  N   UNL     1     -20.133  -5.343  -7.680  1.00  0.00    -0.343 N 
HETATM   13  C   UNL     1     -20.880  -5.950  -6.711  1.00  0.00     0.313 C 
HETATM   14  O   UNL     1     -21.878  -5.475  -6.190  1.00  0.00    -0.248 OA
HETATM   15  N   UNL     1     -20.377  -7.144  -6.322  1.00  0.00    -0.352 N 
HETATM   16  H   UNL     1     -19.640  -7.619  -6.817  1.00  0.00     0.160 HD
HETATM   17  H   UNL     1     -20.896  -7.648  -5.616  1.00  0.00     0.160 HD
HETATM   18  H   UNL     1     -19.508  -5.925  -8.214  1.00  0.00     0.164 HD
ENDBRANCH  11  12
ENDBRANCH   1  11
TORSDOF 7
BEGIN_RES ARG D 557
REMARK  4 active torsions:
REMARK  status: ('A' for Active; 'I' for Inactive)
REMARK    1  A    between atoms: CA   and  CB  
REMARK    2  A    between atoms: CB   and  CG  
REMARK    3  A    between atoms: CG   and  CD  
REMARK    4  A    between atoms: CD   and  NE  
REMARK       I    between atoms: NE   and  CZ  
REMARK       I    between atoms: CZ   and  NH1 
REMARK       I    between atoms: CZ   and  NH2 
ROOT
ATOM      1  CA  ARG D 557     -26.217   2.705 -17.014  1.00 35.49     0.159 C 
ENDROOT
BRANCH   1   2
ATOM      2  CB  ARG D 557     -26.789   1.319 -17.183  1.00 35.49     0.034 C 
BRANCH   2   3
ATOM      3  CG  ARG D 557     -25.851   0.197 -17.055  1.00 35.49     0.027 C 
BRANCH   3   4
ATOM      4  CD  ARG D 557     -26.195  -0.701 -15.929  1.00 35.49     0.116 C 
BRANCH   4   5
ATOM      5  NE  ARG D 557     -25.130  -0.795 -14.966  1.00 35.49    -0.212 N 
ATOM      6  CZ  ARG D 557     -24.749  -1.890 -14.347  1.00 35.49     0.666 C 
ATOM      7  NH1 ARG D 557     -25.336  -3.056 -14.543  1.00 35.49    -0.235 N 
ATOM      8  NH2 ARG D 557     -23.749  -1.795 -13.520  1.00 35.49    -0.235 N 
ATOM      9  HH  ARG D 557     -25.995  -3.143 -15.084  1.00 35.49     0.174 HD
ATOM     10  HH  ARG D 557     -25.043  -3.737 -14.113  1.00 35.49     0.174 HD
ATOM     11  HH  ARG D 557     -23.385  -1.031 -13.419  1.00 35.49     0.174 HD
ATOM     12  HH  ARG D 557     -23.472  -2.481 -13.105  1.00 35.49     0.174 HD
ATOM     13  HE  ARG D 557     -24.744  -0.077 -14.725  1.00 35.49     0.178 HD
ENDBRANCH   4   5
ENDBRANCH   3   4
ENDBRANCH   2   3
ENDBRANCH   1   2
END_RES ARG D 557
BEGIN_RES GLU D 570
REMARK  3 active torsions:
REMARK  status: ('A' for Active; 'I' for Inactive)
REMARK    5  A    between atoms: CA   and  CB  
REMARK    6  A    between atoms: CB   and  CG  
REMARK    7  A    between atoms: CG   and  CD  
ROOT
ATOM     14  CA  GLU D 570     -18.033  -6.348 -13.375  1.00 32.92     0.160 C 
ENDROOT
BRANCH  14  15
ATOM     15  CB  GLU D 570     -19.500  -6.345 -13.794  1.00 32.92     0.043 C 
BRANCH  15  16
ATOM     16  CG  GLU D 570     -20.437  -5.507 -13.001  1.00 32.92     0.100 C 
BRANCH  16  17
ATOM     17  CD  GLU D 570     -21.778  -5.326 -13.673  1.00 32.92     0.185 C 
ATOM     18  OE1 GLU D 570     -22.450  -4.309 -13.417  1.00 32.92    -0.647 OA
ATOM     19  OE2 GLU D 570     -22.168  -6.219 -14.450  1.00 32.92    -0.647 OA
ENDBRANCH  16  17
ENDBRANCH  15  16
ENDBRANCH  14  15
END_RES GLU D 570
ENDMDL
MODEL 8
REMARK VINA RESULT:      -6.2      3.096      4.015
REMARK  7 active torsions:
REMARK  status: ('A' for Active; 'I' for Inactive)
REMARK    1  A    between atoms: C_1  and  C_2 
REMARK    2  A    between atoms: C_1  and  C_8 
REMARK    3  A    between atoms: C_2  and  CA_3 
REMARK    4  A    between atoms: CA_3  and  C_4 
REMARK    5  A    between atoms: CA_3  and  N_7 
REMARK    6  A    between atoms: C_4  and  OXT_6 
REMARK    7  A    between atoms: C_8  and  N_9 
REMARK       I    between atoms: N_9  and  C_10 
REMARK       I    between atoms: C_10  and  N_12 
ROOT
HETATM    1  C   UNL     1     -20.993  -4.012 -10.069  1.00  0.00     0.022 C 
ENDROOT
BRANCH   1   2
HETATM    2  C   UNL     1     -22.303  -4.702  -9.663  1.00  0.00     0.048 C 
BRANCH   2   3
HETATM    3  CA  UNL     1     -23.361  -3.706  -9.162  1.00  0.00     0.314 C 
BRANCH   3   4
HETATM    4  C   UNL     1     -24.597  -3.653 -10.091  1.00  0.00     0.173 C 
HETATM    5  O   UNL     1     -25.631  -3.061  -9.813  1.00  0.00    -0.648 OA
BRANCH   4   6
HETATM    6  OXT UNL     1     -24.428  -4.286 -11.272  1.00  0.00    -0.775 OA
HETATM    7  HXT UNL     1     -24.350  -3.699 -12.047  1.00  0.00     0.167 HD
ENDBRANCH   4   6
ENDBRANCH   3   4
BRANCH   3   8
HETATM    8  N   UNL     1     -23.797  -4.094  -7.800  1.00  0.00     0.093 N 
HETATM    9  H1  UNL     1     -24.637  -4.672  -7.895  1.00  0.00     0.314 HD
HETATM   10  H2  UNL     1     -24.148  -3.254  -7.332  1.00  0.00     0.314 HD
ENDBRANCH   3   8
ENDBRANCH   2   3
ENDBRANCH   1   2
BRANCH   1  11
HETATM   11  C   UNL     1     -21.193  -3.028 -11.219  1.00  0.00     0.124 C 
BRANCH  11  12
HETATM   12  N   UNL     1     -21.362  -3.715 -12.482  1.00  0.00    -0.343 N 
HETATM   13  C   UNL     1     -22.311  -3.320 -13.381  1.00  0.00     0.313 C 
HETATM   14  O   UNL     1     -23.125  -2.427 -13.200  1.00  0.00    -0.248 OA
HETATM   15  N   UNL     1     -22.312  -4.062 -14.512  1.00  0.00    -0.352 N 
HETATM   16  H   UNL     1     -21.579  -4.711 -14.746  1.00  0.00     0.160 HD
HETATM   17  H   UNL     1     -22.984  -3.808 -15.223  1.00  0.00     0.160 HD
HETATM   18  H   UNL     1     -20.592  -4.262 -12.832  1.00  0.00     0.164 HD
ENDBRANCH  11  12
ENDBRANCH   1  11
TORSDOF 7
BEGIN_RES ARG D 557
REMARK  4 active torsions:
REMARK  status: ('A' for Active; 'I' for Inactive)
REMARK    1  A    between atoms: CA   and  CB  
REMARK    2  A    between atoms: CB   and  CG  
REMARK    3  A    between atoms: CG   and  CD  
REMARK    4  A    between atoms: CD   and  NE  
REMARK       I    between atoms: NE   and  CZ  
REMARK       I    between atoms: CZ   and  NH1 
REMARK       I    between atoms: CZ   and  NH2 
ROOT
ATOM      1  CA  ARG D 557     -26.217   2.705 -17.014  1.00 35.49     0.159 C 
ENDROOT
BRANCH   1   2
ATOM      2  CB  ARG D 557     -26.789   1.319 -17.183  1.00 35.49     0.034 C 
BRANCH   2   3
ATOM      3  CG  ARG D 557     -25.994   0.206 -16.649  1.00 35.49     0.027 C 
BRANCH   3   4
ATOM      4  CD  ARG D 557     -26.836  -0.932 -16.217  1.00 35.49     0.116 C 
BRANCH   4   5
ATOM      5  NE  ARG D 557     -26.315  -1.575 -15.039  1.00 35.49    -0.212 N 
ATOM      6  CZ  ARG D 557     -26.338  -2.866 -14.795  1.00 35.49     0.666 C 
ATOM      7  NH1 ARG D 557     -26.874  -3.737 -15.630  1.00 35.49    -0.235 N 
ATOM      8  NH2 ARG D 557     -25.800  -3.276 -13.683  1.00 35.49    -0.235 N 
ATOM      9  HH  ARG D 557     -27.231  -3.489 -16.369  1.00 35.49     0.174 HD
ATOM     10  HH  ARG D 557     -26.857  -4.567 -15.419  1.00 35.49     0.174 HD
ATOM     11  HH  ARG D 557     -25.455  -2.692 -13.166  1.00 35.49     0.174 HD
ATOM     12  HH  ARG D 557     -25.792  -4.102 -13.492  1.00 35.49     0.174 HD
ATOM     13  HE  ARG D 557     -26.017  -1.082 -14.414  1.00 35.49     0.178 HD
ENDBRANCH   4   5
ENDBRANCH   3   4
ENDBRANCH   2   3
ENDBRANCH   1   2
END_RES ARG D 557
BEGIN_RES GLU D 570
REMARK  3 active torsions:
REMARK  status: ('A' for Active; 'I' for Inactive)
REMARK    5  A    between atoms: CA   and  CB  
REMARK    6  A    between atoms: CB   and  CG  
REMARK    7  A    between atoms: CG   and  CD  
ROOT
ATOM     14  CA  GLU D 570     -18.033  -6.348 -13.375  1.00 32.92     0.160 C 
ENDROOT
BRANCH  14  15
ATOM     15  CB  GLU D 570     -19.500  -6.345 -13.794  1.00 32.92     0.043 C 
BRANCH  15  16
ATOM     16  CG  GLU D 570     -20.086  -7.634 -14.246  1.00 32.92     0.100 C 
BRANCH  16  17
ATOM     17  CD  GLU D 570     -20.764  -7.533 -15.592  1.00 32.92     0.185 C 
ATOM     18  OE1 GLU D 570     -21.093  -8.579 -16.184  1.00 32.92    -0.647 OA
ATOM     19  OE2 GLU D 570     -20.954  -6.396 -16.068  1.00 32.92    -0.647 OA
ENDBRANCH  16  17
ENDBRANCH  15  16
ENDBRANCH  14  15
END_RES GLU D 570
ENDMDL
MODEL 9
REMARK VINA RESULT:      -6.0      4.961      6.200
REMARK  7 active torsions:
REMARK  status: ('A' for Active; 'I' for Inactive)
REMARK    1  A    between atoms: C_1  and  C_2 
REMARK    2  A    between atoms: C_1  and  C_8 
REMARK    3  A    between atoms: C_2  and  CA_3 
REMARK    4  A    between atoms: CA_3  and  C_4 
REMARK    5  A    between atoms: CA_3  and  N_7 
REMARK    6  A    between atoms: C_4  and  OXT_6 
REMARK    7  A    between atoms: C_8  and  N_9 
REMARK       I    between atoms: N_9  and  C_10 
REMARK       I    between atoms: C_10  and  N_12 
ROOT
HETATM    1  C   UNL     1     -21.048  -4.343  -9.187  1.00  0.00     0.022 C 
ENDROOT
BRANCH   1   2
HETATM    2  C   UNL     1     -21.173  -3.827  -7.746  1.00  0.00     0.048 C 
BRANCH   2   3
HETATM    3  CA  UNL     1     -21.166  -4.964  -6.712  1.00  0.00     0.314 C 
BRANCH   3   4
HETATM    4  C   UNL     1     -22.583  -5.266  -6.170  1.00  0.00     0.173 C 
HETATM    5  O   UNL     1     -22.810  -6.060  -5.267  1.00  0.00    -0.648 OA
BRANCH   4   6
HETATM    6  OXT UNL     1     -23.564  -4.541  -6.751  1.00  0.00    -0.775 OA
HETATM    7  HXT UNL     1     -23.671  -4.686  -7.709  1.00  0.00     0.167 HD
ENDBRANCH   4   6
ENDBRANCH   3   4
BRANCH   3   8
HETATM    8  N   UNL     1     -20.615  -6.191  -7.333  1.00  0.00     0.093 N 
HETATM    9  H1  UNL     1     -20.546  -6.026  -8.341  1.00  0.00     0.314 HD
HETATM   10  H2  UNL     1     -21.329  -6.922  -7.269  1.00  0.00     0.314 HD
ENDBRANCH   3   8
ENDBRANCH   2   3
ENDBRANCH   1   2
BRANCH   1  11
HETATM   11  C   UNL     1     -22.102  -3.735 -10.109  1.00  0.00     0.124 C 
BRANCH  11  12
HETATM   12  N   UNL     1     -23.427  -3.828  -9.532  1.00  0.00    -0.343 N 
HETATM   13  C   UNL     1     -24.535  -3.459 -10.241  1.00  0.00     0.313 C 
HETATM   14  O   UNL     1     -24.525  -2.973 -11.362  1.00  0.00    -0.248 OA
HETATM   15  N   UNL     1     -25.687  -3.633  -9.553  1.00  0.00    -0.352 N 
HETATM   16  H   UNL     1     -25.741  -4.146  -8.689  1.00  0.00     0.160 HD
HETATM   17  H   UNL     1     -26.543  -3.389 -10.032  1.00  0.00     0.160 HD
HETATM   18  H   UNL     1     -23.563  -4.450  -8.752  1.00  0.00     0.164 HD
ENDBRANCH  11  12
ENDBRANCH   1  11
TORSDOF 7
BEGIN_RES ARG D 557
REMARK  4 active torsions:
REMARK  status: ('A' for Active; 'I' for Inactive)
REMARK    1  A    between atoms: CA   and  CB  
REMARK    2  A    between atoms: CB   and  CG  
REMARK    3  A    between atoms: CG   and  CD  
REMARK    4  A    between atoms: CD   and  NE  
REMARK       I    between atoms: NE   and  CZ  
REMARK       I    between atoms: CZ   and  NH1 
REMARK       I    between atoms: CZ   and  NH2 
ROOT
ATOM      1  CA  ARG D 557     -26.217   2.705 -17.014  1.00 35.49     0.159 C 
ENDROOT
BRANCH   1   2
ATOM      2  CB  ARG D 557     -26.789   1.319 -17.183  1.00 35.49     0.034 C 
BRANCH   2   3
ATOM      3  CG  ARG D 557     -25.860   0.195 -17.011  1.00 35.49     0.027 C 
BRANCH   3   4
ATOM      4  CD  ARG D 557     -26.111  -0.558 -15.761  1.00 35.49     0.116 C 
BRANCH   4   5
ATOM      5  NE  ARG D 557     -24.890  -0.921 -15.092  1.00 35.49    -0.212 N 
ATOM      6  CZ  ARG D 557     -24.650  -2.070 -14.501  1.00 35.49     0.666 C 
ATOM      7  NH1 ARG D 557     -25.544  -3.040 -14.446  1.00 35.49    -0.235 N 
ATOM      8  NH2 ARG D 557     -23.477  -2.235 -13.963  1.00 35.49    -0.235 N 
ATOM      9  HH  ARG D 557     -26.322  -2.954 -14.796  1.00 35.49     0.174 HD
ATOM     10  HH  ARG D 557     -25.331  -3.768 -14.049  1.00 35.49     0.174 HD
ATOM     11  HH  ARG D 557     -22.916  -1.594 -14.020  1.00 35.49     0.174 HD
ATOM     12  HH  ARG D 557     -23.284  -2.964 -13.576  1.00 35.49     0.174 HD
ATOM     13  HE  ARG D 557     -24.284  -0.328 -15.016  1.00 35.49     0.178 HD
ENDBRANCH   4   5
ENDBRANCH   3   4
ENDBRANCH   2   3
ENDBRANCH   1   2
END_RES ARG D 557
BEGIN_RES GLU D 570
REMARK  3 active torsions:
REMARK  status: ('A' for Active; 'I' for Inactive)
REMARK    5  A    between atoms: CA   and  CB  
REMARK    6  A    between atoms: CB   and  CG  
REMARK    7  A    between atoms: CG   and  CD  
ROOT
ATOM     14  CA  GLU D 570     -18.033  -6.348 -13.375  1.00 32.92     0.160 C 
ENDROOT
BRANCH  14  15
ATOM     15  CB  GLU D 570     -19.500  -6.345 -13.794  1.00 32.92     0.043 C 
BRANCH  15  16
ATOM     16  CG  GLU D 570     -20.444  -5.541 -12.976  1.00 32.92     0.100 C 
BRANCH  16  17
ATOM     17  CD  GLU D 570     -21.696  -5.156 -13.728  1.00 32.92     0.185 C 
ATOM     18  OE1 GLU D 570     -22.796  -5.222 -13.146  1.00 32.92    -0.647 OA
ATOM     19  OE2 GLU D 570     -21.578  -4.802 -14.918  1.00 32.92    -0.647 OA
ENDBRANCH  16  17
ENDBRANCH  15  16
ENDBRANCH  14  15
END_RES GLU D 570
ENDMDL
