MODEL 1
REMARK VINA RESULT:      -1.3      0.000      0.000
REMARK  4 active torsions:
REMARK  status: ('A' for Active; 'I' for Inactive)
REMARK    1  A    between atoms: C_4  and  S_26 
REMARK    2  A    between atoms: C_5  and  N_8 
REMARK    3  A    between atoms: N_8  and  C_9 
REMARK    4  A    between atoms: C_12  and  O_15 
ROOT
HETATM    1 NA   UNL     2     -11.266   1.475   2.313  1.00  0.00     0.000 Na
ENDROOT
TORSDOF 4
BEGIN_RES ARG D 557
REMARK  4 active torsions:
REMARK  status: ('A' for Active; 'I' for Inactive)
REMARK    1  A    between atoms: CA   and  CB  
REMARK    2  A    between atoms: CB   and  CG  
REMARK    3  A    between atoms: CG   and  CD  
REMARK    4  A    between atoms: CD   and  NE  
REMARK       I    between atoms: NE   and  CZ  
REMARK       I    between atoms: CZ   and  NH1 
REMARK       I    between atoms: CZ   and  NH2 
ROOT
ATOM      1  CA  ARG D 557     -26.217   2.705 -17.014  1.00 35.49     0.159 C 
ENDROOT
BRANCH   1   2
ATOM      2  CB  ARG D 557     -26.789   1.319 -17.183  1.00 35.49     0.034 C 
BRANCH   2   3
ATOM      3  CG  ARG D 557     -25.835   0.204 -17.164  1.00 35.49     0.027 C 
BRANCH   3   4
ATOM      4  CD  ARG D 557     -24.749   0.407 -16.177  1.00 35.49     0.116 C 
BRANCH   4   5
ATOM      5  NE  ARG D 557     -24.899  -0.441 -15.024  1.00 35.49    -0.212 N 
ATOM      6  CZ  ARG D 557     -24.086  -1.411 -14.673  1.00 35.49     0.666 C 
ATOM      7  NH1 ARG D 557     -23.015  -1.729 -15.377  1.00 35.49    -0.235 N 
ATOM      8  NH2 ARG D 557     -24.365  -2.064 -13.582  1.00 35.49    -0.235 N 
ATOM      9  HH  ARG D 557     -22.810  -1.311 -16.097  1.00 35.49     0.174 HD
ATOM     10  HH  ARG D 557     -22.519  -2.369 -15.098  1.00 35.49     0.174 HD
ATOM     11  HH  ARG D 557     -25.059  -1.832 -13.144  1.00 35.49     0.174 HD
ATOM     12  HH  ARG D 557     -23.861  -2.694 -13.321  1.00 35.49     0.174 HD
ATOM     13  HE  ARG D 557     -25.602  -0.354 -14.553  1.00 35.49     0.178 HD
ENDBRANCH   4   5
ENDBRANCH   3   4
ENDBRANCH   2   3
ENDBRANCH   1   2
END_RES ARG D 557
BEGIN_RES GLU D 570
REMARK  3 active torsions:
REMARK  status: ('A' for Active; 'I' for Inactive)
REMARK    5  A    between atoms: CA   and  CB  
REMARK    6  A    between atoms: CB   and  CG  
REMARK    7  A    between atoms: CG   and  CD  
ROOT
ATOM     14  CA  GLU D 570     -18.033  -6.348 -13.375  1.00 32.92     0.160 C 
ENDROOT
BRANCH  14  15
ATOM     15  CB  GLU D 570     -19.500  -6.345 -13.794  1.00 32.92     0.043 C 
BRANCH  15  16
ATOM     16  CG  GLU D 570     -20.445  -5.544 -12.973  1.00 32.92     0.100 C 
BRANCH  16  17
ATOM     17  CD  GLU D 570     -21.742  -5.247 -13.689  1.00 32.92     0.185 C 
ATOM     18  OE1 GLU D 570     -22.243  -6.122 -14.422  1.00 32.92    -0.647 OA
ATOM     19  OE2 GLU D 570     -22.254  -4.122 -13.529  1.00 32.92    -0.647 OA
ENDBRANCH  16  17
ENDBRANCH  15  16
ENDBRANCH  14  15
END_RES GLU D 570
ENDMDL
MODEL 2
REMARK VINA RESULT:      -1.2      8.051      8.051
REMARK  4 active torsions:
REMARK  status: ('A' for Active; 'I' for Inactive)
REMARK    1  A    between atoms: C_4  and  S_26 
REMARK    2  A    between atoms: C_5  and  N_8 
REMARK    3  A    between atoms: N_8  and  C_9 
REMARK    4  A    between atoms: C_12  and  O_15 
ROOT
HETATM    1 NA   UNL     2     -27.038 -13.648 -13.037  1.00  0.00     0.000 Na
ENDROOT
TORSDOF 4
BEGIN_RES ARG D 557
REMARK  4 active torsions:
REMARK  status: ('A' for Active; 'I' for Inactive)
REMARK    1  A    between atoms: CA   and  CB  
REMARK    2  A    between atoms: CB   and  CG  
REMARK    3  A    between atoms: CG   and  CD  
REMARK    4  A    between atoms: CD   and  NE  
REMARK       I    between atoms: NE   and  CZ  
REMARK       I    between atoms: CZ   and  NH1 
REMARK       I    between atoms: CZ   and  NH2 
ROOT
ATOM      1  CA  ARG D 557     -26.217   2.705 -17.014  1.00 35.49     0.159 C 
ENDROOT
BRANCH   1   2
ATOM      2  CB  ARG D 557     -26.789   1.319 -17.183  1.00 35.49     0.034 C 
BRANCH   2   3
ATOM      3  CG  ARG D 557     -25.835   0.204 -17.164  1.00 35.49     0.027 C 
BRANCH   3   4
ATOM      4  CD  ARG D 557     -24.746   0.409 -16.181  1.00 35.49     0.116 C 
BRANCH   4   5
ATOM      5  NE  ARG D 557     -24.892  -0.436 -15.025  1.00 35.49    -0.212 N 
ATOM      6  CZ  ARG D 557     -24.078  -1.406 -14.675  1.00 35.49     0.666 C 
ATOM      7  NH1 ARG D 557     -23.010  -1.726 -15.383  1.00 35.49    -0.235 N 
ATOM      8  NH2 ARG D 557     -24.354  -2.056 -13.582  1.00 35.49    -0.235 N 
ATOM      9  HH  ARG D 557     -22.808  -1.310 -16.105  1.00 35.49     0.174 HD
ATOM     10  HH  ARG D 557     -22.514  -2.366 -15.105  1.00 35.49     0.174 HD
ATOM     11  HH  ARG D 557     -25.045  -1.823 -13.142  1.00 35.49     0.174 HD
ATOM     12  HH  ARG D 557     -23.849  -2.686 -13.322  1.00 35.49     0.174 HD
ATOM     13  HE  ARG D 557     -25.593  -0.347 -14.552  1.00 35.49     0.178 HD
ENDBRANCH   4   5
ENDBRANCH   3   4
ENDBRANCH   2   3
ENDBRANCH   1   2
END_RES ARG D 557
BEGIN_RES GLU D 570
REMARK  3 active torsions:
REMARK  status: ('A' for Active; 'I' for Inactive)
REMARK    5  A    between atoms: CA   and  CB  
REMARK    6  A    between atoms: CB   and  CG  
REMARK    7  A    between atoms: CG   and  CD  
ROOT
ATOM     14  CA  GLU D 570     -18.033  -6.348 -13.375  1.00 32.92     0.160 C 
ENDROOT
BRANCH  14  15
ATOM     15  CB  GLU D 570     -19.500  -6.345 -13.794  1.00 32.92     0.043 C 
BRANCH  15  16
ATOM     16  CG  GLU D 570     -20.443  -5.538 -12.978  1.00 32.92     0.100 C 
BRANCH  16  17
ATOM     17  CD  GLU D 570     -21.744  -5.252 -13.691  1.00 32.92     0.185 C 
ATOM     18  OE1 GLU D 570     -22.243  -6.133 -14.417  1.00 32.92    -0.647 OA
ATOM     19  OE2 GLU D 570     -22.262  -4.128 -13.536  1.00 32.92    -0.647 OA
ENDBRANCH  16  17
ENDBRANCH  15  16
ENDBRANCH  14  15
END_RES GLU D 570
ENDMDL
MODEL 3
REMARK VINA RESULT:      -1.1      5.115      5.200
REMARK  4 active torsions:
REMARK  status: ('A' for Active; 'I' for Inactive)
REMARK    1  A    between atoms: C_4  and  S_26 
REMARK    2  A    between atoms: C_5  and  N_8 
REMARK    3  A    between atoms: N_8  and  C_9 
REMARK    4  A    between atoms: C_12  and  O_15 
ROOT
HETATM    1 NA   UNL     2     -25.080  -4.926  -5.173  1.00  0.00     0.000 Na
ENDROOT
TORSDOF 4
BEGIN_RES ARG D 557
REMARK  4 active torsions:
REMARK  status: ('A' for Active; 'I' for Inactive)
REMARK    1  A    between atoms: CA   and  CB  
REMARK    2  A    between atoms: CB   and  CG  
REMARK    3  A    between atoms: CG   and  CD  
REMARK    4  A    between atoms: CD   and  NE  
REMARK       I    between atoms: NE   and  CZ  
REMARK       I    between atoms: CZ   and  NH1 
REMARK       I    between atoms: CZ   and  NH2 
ROOT
ATOM      1  CA  ARG D 557     -26.217   2.705 -17.014  1.00 35.49     0.159 C 
ENDROOT
BRANCH   1   2
ATOM      2  CB  ARG D 557     -26.789   1.319 -17.183  1.00 35.49     0.034 C 
BRANCH   2   3
ATOM      3  CG  ARG D 557     -25.835   0.204 -17.164  1.00 35.49     0.027 C 
BRANCH   3   4
ATOM      4  CD  ARG D 557     -24.750   0.406 -16.176  1.00 35.49     0.116 C 
BRANCH   4   5
ATOM      5  NE  ARG D 557     -24.901  -0.442 -15.023  1.00 35.49    -0.212 N 
ATOM      6  CZ  ARG D 557     -24.089  -1.413 -14.672  1.00 35.49     0.666 C 
ATOM      7  NH1 ARG D 557     -23.019  -1.732 -15.376  1.00 35.49    -0.235 N 
ATOM      8  NH2 ARG D 557     -24.370  -2.066 -13.582  1.00 35.49    -0.235 N 
ATOM      9  HH  ARG D 557     -22.814  -1.315 -16.096  1.00 35.49     0.174 HD
ATOM     10  HH  ARG D 557     -22.524  -2.374 -15.097  1.00 35.49     0.174 HD
ATOM     11  HH  ARG D 557     -25.063  -1.833 -13.143  1.00 35.49     0.174 HD
ATOM     12  HH  ARG D 557     -23.867  -2.697 -13.321  1.00 35.49     0.174 HD
ATOM     13  HE  ARG D 557     -25.604  -0.353 -14.552  1.00 35.49     0.178 HD
ENDBRANCH   4   5
ENDBRANCH   3   4
ENDBRANCH   2   3
ENDBRANCH   1   2
END_RES ARG D 557
BEGIN_RES GLU D 570
REMARK  3 active torsions:
REMARK  status: ('A' for Active; 'I' for Inactive)
REMARK    5  A    between atoms: CA   and  CB  
REMARK    6  A    between atoms: CB   and  CG  
REMARK    7  A    between atoms: CG   and  CD  
ROOT
ATOM     14  CA  GLU D 570     -18.033  -6.348 -13.375  1.00 32.92     0.160 C 
ENDROOT
BRANCH  14  15
ATOM     15  CB  GLU D 570     -19.500  -6.345 -13.794  1.00 32.92     0.043 C 
BRANCH  15  16
ATOM     16  CG  GLU D 570     -20.442  -5.530 -12.983  1.00 32.92     0.100 C 
BRANCH  16  17
ATOM     17  CD  GLU D 570     -21.745  -5.253 -13.696  1.00 32.92     0.185 C 
ATOM     18  OE1 GLU D 570     -22.307  -4.154 -13.524  1.00 32.92    -0.647 OA
ATOM     19  OE2 GLU D 570     -22.218  -6.151 -14.421  1.00 32.92    -0.647 OA
ENDBRANCH  16  17
ENDBRANCH  15  16
ENDBRANCH  14  15
END_RES GLU D 570
ENDMDL
MODEL 4
REMARK VINA RESULT:      -1.0      6.144      6.223
REMARK  4 active torsions:
REMARK  status: ('A' for Active; 'I' for Inactive)
REMARK    1  A    between atoms: C_4  and  S_26 
REMARK    2  A    between atoms: C_5  and  N_8 
REMARK    3  A    between atoms: N_8  and  C_9 
REMARK    4  A    between atoms: C_12  and  O_15 
ROOT
HETATM    1 NA   UNL     2      -9.119   5.890 -17.178  1.00  0.00     0.000 Na
ENDROOT
TORSDOF 4
BEGIN_RES ARG D 557
REMARK  4 active torsions:
REMARK  status: ('A' for Active; 'I' for Inactive)
REMARK    1  A    between atoms: CA   and  CB  
REMARK    2  A    between atoms: CB   and  CG  
REMARK    3  A    between atoms: CG   and  CD  
REMARK    4  A    between atoms: CD   and  NE  
REMARK       I    between atoms: NE   and  CZ  
REMARK       I    between atoms: CZ   and  NH1 
REMARK       I    between atoms: CZ   and  NH2 
ROOT
ATOM      1  CA  ARG D 557     -26.217   2.705 -17.014  1.00 35.49     0.159 C 
ENDROOT
BRANCH   1   2
ATOM      2  CB  ARG D 557     -26.789   1.319 -17.183  1.00 35.49     0.034 C 
BRANCH   2   3
ATOM      3  CG  ARG D 557     -25.864   0.195 -16.992  1.00 35.49     0.027 C 
BRANCH   3   4
ATOM      4  CD  ARG D 557     -26.290  -0.706 -15.897  1.00 35.49     0.116 C 
BRANCH   4   5
ATOM      5  NE  ARG D 557     -25.241  -0.926 -14.936  1.00 35.49    -0.212 N 
ATOM      6  CZ  ARG D 557     -24.957  -2.071 -14.357  1.00 35.49     0.666 C 
ATOM      7  NH1 ARG D 557     -25.641  -3.175 -14.596  1.00 35.49    -0.235 N 
ATOM      8  NH2 ARG D 557     -23.956  -2.091 -13.526  1.00 35.49    -0.235 N 
ATOM      9  HH  ARG D 557     -26.302  -3.185 -15.141  1.00 35.49     0.174 HD
ATOM     10  HH  ARG D 557     -25.408  -3.893 -14.191  1.00 35.49     0.174 HD
ATOM     11  HH  ARG D 557     -23.529  -1.365 -13.397  1.00 35.49     0.174 HD
ATOM     12  HH  ARG D 557     -23.741  -2.812 -13.135  1.00 35.49     0.174 HD
ATOM     13  HE  ARG D 557     -24.797  -0.252 -14.669  1.00 35.49     0.178 HD
ENDBRANCH   4   5
ENDBRANCH   3   4
ENDBRANCH   2   3
ENDBRANCH   1   2
END_RES ARG D 557
BEGIN_RES GLU D 570
REMARK  3 active torsions:
REMARK  status: ('A' for Active; 'I' for Inactive)
REMARK    5  A    between atoms: CA   and  CB  
REMARK    6  A    between atoms: CB   and  CG  
REMARK    7  A    between atoms: CG   and  CD  
ROOT
ATOM     14  CA  GLU D 570     -18.033  -6.348 -13.375  1.00 32.92     0.160 C 
ENDROOT
BRANCH  14  15
ATOM     15  CB  GLU D 570     -19.500  -6.345 -13.794  1.00 32.92     0.043 C 
BRANCH  15  16
ATOM     16  CG  GLU D 570     -20.448  -5.561 -12.961  1.00 32.92     0.100 C 
BRANCH  16  17
ATOM     17  CD  GLU D 570     -21.679  -5.126 -13.721  1.00 32.92     0.185 C 
ATOM     18  OE1 GLU D 570     -22.726  -4.882 -13.090  1.00 32.92    -0.647 OA
ATOM     19  OE2 GLU D 570     -21.601  -5.044 -14.963  1.00 32.92    -0.647 OA
ENDBRANCH  16  17
ENDBRANCH  15  16
ENDBRANCH  14  15
END_RES GLU D 570
ENDMDL
MODEL 5
REMARK VINA RESULT:      -1.0      5.407      5.407
REMARK  4 active torsions:
REMARK  status: ('A' for Active; 'I' for Inactive)
REMARK    1  A    between atoms: C_4  and  S_26 
REMARK    2  A    between atoms: C_5  and  N_8 
REMARK    3  A    between atoms: N_8  and  C_9 
REMARK    4  A    between atoms: C_12  and  O_15 
ROOT
HETATM    1 NA   UNL     2     -20.917  -2.578 -12.246  1.00  0.00     0.000 Na
ENDROOT
TORSDOF 4
BEGIN_RES ARG D 557
REMARK  4 active torsions:
REMARK  status: ('A' for Active; 'I' for Inactive)
REMARK    1  A    between atoms: CA   and  CB  
REMARK    2  A    between atoms: CB   and  CG  
REMARK    3  A    between atoms: CG   and  CD  
REMARK    4  A    between atoms: CD   and  NE  
REMARK       I    between atoms: NE   and  CZ  
REMARK       I    between atoms: CZ   and  NH1 
REMARK       I    between atoms: CZ   and  NH2 
ROOT
ATOM      1  CA  ARG D 557     -26.217   2.705 -17.014  1.00 35.49     0.159 C 
ENDROOT
BRANCH   1   2
ATOM      2  CB  ARG D 557     -26.789   1.319 -17.183  1.00 35.49     0.034 C 
BRANCH   2   3
ATOM      3  CG  ARG D 557     -25.836   0.203 -17.157  1.00 35.49     0.027 C 
BRANCH   3   4
ATOM      4  CD  ARG D 557     -24.754   0.408 -16.166  1.00 35.49     0.116 C 
BRANCH   4   5
ATOM      5  NE  ARG D 557     -24.905  -0.443 -15.015  1.00 35.49    -0.212 N 
ATOM      6  CZ  ARG D 557     -24.093  -1.417 -14.669  1.00 35.49     0.666 C 
ATOM      7  NH1 ARG D 557     -23.023  -1.734 -15.375  1.00 35.49    -0.235 N 
ATOM      8  NH2 ARG D 557     -24.372  -2.073 -13.580  1.00 35.49    -0.235 N 
ATOM      9  HH  ARG D 557     -22.819  -1.314 -16.094  1.00 35.49     0.174 HD
ATOM     10  HH  ARG D 557     -22.529  -2.377 -15.099  1.00 35.49     0.174 HD
ATOM     11  HH  ARG D 557     -25.065  -1.841 -13.140  1.00 35.49     0.174 HD
ATOM     12  HH  ARG D 557     -23.870  -2.705 -13.322  1.00 35.49     0.174 HD
ATOM     13  HE  ARG D 557     -25.607  -0.357 -14.543  1.00 35.49     0.178 HD
ENDBRANCH   4   5
ENDBRANCH   3   4
ENDBRANCH   2   3
ENDBRANCH   1   2
END_RES ARG D 557
BEGIN_RES GLU D 570
REMARK  3 active torsions:
REMARK  status: ('A' for Active; 'I' for Inactive)
REMARK    5  A    between atoms: CA   and  CB  
REMARK    6  A    between atoms: CB   and  CG  
REMARK    7  A    between atoms: CG   and  CD  
ROOT
ATOM     14  CA  GLU D 570     -18.033  -6.348 -13.375  1.00 32.92     0.160 C 
ENDROOT
BRANCH  14  15
ATOM     15  CB  GLU D 570     -19.500  -6.345 -13.794  1.00 32.92     0.043 C 
BRANCH  15  16
ATOM     16  CG  GLU D 570     -20.439  -5.518 -12.993  1.00 32.92     0.100 C 
BRANCH  16  17
ATOM     17  CD  GLU D 570     -21.739  -5.241 -13.710  1.00 32.92     0.185 C 
ATOM     18  OE1 GLU D 570     -22.182  -6.087 -14.510  1.00 32.92    -0.647 OA
ATOM     19  OE2 GLU D 570     -22.313  -4.157 -13.483  1.00 32.92    -0.647 OA
ENDBRANCH  16  17
ENDBRANCH  15  16
ENDBRANCH  14  15
END_RES GLU D 570
ENDMDL
MODEL 6
REMARK VINA RESULT:      -0.9     10.089     10.132
REMARK  4 active torsions:
REMARK  status: ('A' for Active; 'I' for Inactive)
REMARK    1  A    between atoms: C_4  and  S_26 
REMARK    2  A    between atoms: C_5  and  N_8 
REMARK    3  A    between atoms: N_8  and  C_9 
REMARK    4  A    between atoms: C_12  and  O_15 
ROOT
HETATM    1 NA   UNL     2     -28.319 -13.497 -22.278  1.00  0.00     0.000 Na
ENDROOT
TORSDOF 4
BEGIN_RES ARG D 557
REMARK  4 active torsions:
REMARK  status: ('A' for Active; 'I' for Inactive)
REMARK    1  A    between atoms: CA   and  CB  
REMARK    2  A    between atoms: CB   and  CG  
REMARK    3  A    between atoms: CG   and  CD  
REMARK    4  A    between atoms: CD   and  NE  
REMARK       I    between atoms: NE   and  CZ  
REMARK       I    between atoms: CZ   and  NH1 
REMARK       I    between atoms: CZ   and  NH2 
ROOT
ATOM      1  CA  ARG D 557     -26.217   2.705 -17.014  1.00 35.49     0.159 C 
ENDROOT
BRANCH   1   2
ATOM      2  CB  ARG D 557     -26.789   1.319 -17.183  1.00 35.49     0.034 C 
BRANCH   2   3
ATOM      3  CG  ARG D 557     -25.835   0.203 -17.159  1.00 35.49     0.027 C 
BRANCH   3   4
ATOM      4  CD  ARG D 557     -24.748   0.411 -16.175  1.00 35.49     0.116 C 
BRANCH   4   5
ATOM      5  NE  ARG D 557     -24.893  -0.433 -15.019  1.00 35.49    -0.212 N 
ATOM      6  CZ  ARG D 557     -24.080  -1.404 -14.670  1.00 35.49     0.666 C 
ATOM      7  NH1 ARG D 557     -23.013  -1.725 -15.380  1.00 35.49    -0.235 N 
ATOM      8  NH2 ARG D 557     -24.355  -2.054 -13.577  1.00 35.49    -0.235 N 
ATOM      9  HH  ARG D 557     -22.812  -1.310 -16.101  1.00 35.49     0.174 HD
ATOM     10  HH  ARG D 557     -22.518  -2.366 -15.101  1.00 35.49     0.174 HD
ATOM     11  HH  ARG D 557     -25.046  -1.820 -13.135  1.00 35.49     0.174 HD
ATOM     12  HH  ARG D 557     -23.851  -2.685 -13.317  1.00 35.49     0.174 HD
ATOM     13  HE  ARG D 557     -25.593  -0.343 -14.545  1.00 35.49     0.178 HD
ENDBRANCH   4   5
ENDBRANCH   3   4
ENDBRANCH   2   3
ENDBRANCH   1   2
END_RES ARG D 557
BEGIN_RES GLU D 570
REMARK  3 active torsions:
REMARK  status: ('A' for Active; 'I' for Inactive)
REMARK    5  A    between atoms: CA   and  CB  
REMARK    6  A    between atoms: CB   and  CG  
REMARK    7  A    between atoms: CG   and  CD  
ROOT
ATOM     14  CA  GLU D 570     -18.033  -6.348 -13.375  1.00 32.92     0.160 C 
ENDROOT
BRANCH  14  15
ATOM     15  CB  GLU D 570     -19.500  -6.345 -13.794  1.00 32.92     0.043 C 
BRANCH  15  16
ATOM     16  CG  GLU D 570     -20.441  -5.528 -12.985  1.00 32.92     0.100 C 
BRANCH  16  17
ATOM     17  CD  GLU D 570     -21.740  -5.242 -13.703  1.00 32.92     0.185 C 
ATOM     18  OE1 GLU D 570     -22.274  -4.124 -13.565  1.00 32.92    -0.647 OA
ATOM     19  OE2 GLU D 570     -22.237  -6.151 -14.397  1.00 32.92    -0.647 OA
ENDBRANCH  16  17
ENDBRANCH  15  16
ENDBRANCH  14  15
END_RES GLU D 570
ENDMDL
MODEL 7
REMARK VINA RESULT:      -0.9      6.877      6.940
REMARK  4 active torsions:
REMARK  status: ('A' for Active; 'I' for Inactive)
REMARK    1  A    between atoms: C_4  and  S_26 
REMARK    2  A    between atoms: C_5  and  N_8 
REMARK    3  A    between atoms: N_8  and  C_9 
REMARK    4  A    between atoms: C_12  and  O_15 
ROOT
HETATM    1 NA   UNL     2     -11.686 -14.921 -13.534  1.00  0.00     0.000 Na
ENDROOT
TORSDOF 4
BEGIN_RES ARG D 557
REMARK  4 active torsions:
REMARK  status: ('A' for Active; 'I' for Inactive)
REMARK    1  A    between atoms: CA   and  CB  
REMARK    2  A    between atoms: CB   and  CG  
REMARK    3  A    between atoms: CG   and  CD  
REMARK    4  A    between atoms: CD   and  NE  
REMARK       I    between atoms: NE   and  CZ  
REMARK       I    between atoms: CZ   and  NH1 
REMARK       I    between atoms: CZ   and  NH2 
ROOT
ATOM      1  CA  ARG D 557     -26.217   2.705 -17.014  1.00 35.49     0.159 C 
ENDROOT
BRANCH   1   2
ATOM      2  CB  ARG D 557     -26.789   1.319 -17.183  1.00 35.49     0.034 C 
BRANCH   2   3
ATOM      3  CG  ARG D 557     -25.835   0.203 -17.161  1.00 35.49     0.027 C 
BRANCH   3   4
ATOM      4  CD  ARG D 557     -24.755   0.405 -16.168  1.00 35.49     0.116 C 
BRANCH   4   5
ATOM      5  NE  ARG D 557     -24.909  -0.447 -15.018  1.00 35.49    -0.212 N 
ATOM      6  CZ  ARG D 557     -24.094  -1.417 -14.666  1.00 35.49     0.666 C 
ATOM      7  NH1 ARG D 557     -23.019  -1.728 -15.365  1.00 35.49    -0.235 N 
ATOM      8  NH2 ARG D 557     -24.379  -2.074 -13.579  1.00 35.49    -0.235 N 
ATOM      9  HH  ARG D 557     -22.811  -1.308 -16.082  1.00 35.49     0.174 HD
ATOM     10  HH  ARG D 557     -22.523  -2.369 -15.085  1.00 35.49     0.174 HD
ATOM     11  HH  ARG D 557     -25.076  -1.845 -13.144  1.00 35.49     0.174 HD
ATOM     12  HH  ARG D 557     -23.874  -2.703 -13.317  1.00 35.49     0.174 HD
ATOM     13  HE  ARG D 557     -25.615  -0.364 -14.551  1.00 35.49     0.178 HD
ENDBRANCH   4   5
ENDBRANCH   3   4
ENDBRANCH   2   3
ENDBRANCH   1   2
END_RES ARG D 557
BEGIN_RES GLU D 570
REMARK  3 active torsions:
REMARK  status: ('A' for Active; 'I' for Inactive)
REMARK    5  A    between atoms: CA   and  CB  
REMARK    6  A    between atoms: CB   and  CG  
REMARK    7  A    between atoms: CG   and  CD  
ROOT
ATOM     14  CA  GLU D 570     -18.033  -6.348 -13.375  1.00 32.92     0.160 C 
ENDROOT
BRANCH  14  15
ATOM     15  CB  GLU D 570     -19.500  -6.345 -13.794  1.00 32.92     0.043 C 
BRANCH  15  16
ATOM     16  CG  GLU D 570     -20.439  -5.519 -12.992  1.00 32.92     0.100 C 
BRANCH  16  17
ATOM     17  CD  GLU D 570     -21.746  -5.254 -13.703  1.00 32.92     0.185 C 
ATOM     18  OE1 GLU D 570     -22.299  -4.147 -13.559  1.00 32.92    -0.647 OA
ATOM     19  OE2 GLU D 570     -22.229  -6.169 -14.399  1.00 32.92    -0.647 OA
ENDBRANCH  16  17
ENDBRANCH  15  16
ENDBRANCH  14  15
END_RES GLU D 570
ENDMDL
MODEL 8
REMARK VINA RESULT:      -0.9     10.893     10.933
REMARK  4 active torsions:
REMARK  status: ('A' for Active; 'I' for Inactive)
REMARK    1  A    between atoms: C_4  and  S_26 
REMARK    2  A    between atoms: C_5  and  N_8 
REMARK    3  A    between atoms: N_8  and  C_9 
REMARK    4  A    between atoms: C_12  and  O_15 
ROOT
HETATM    1 NA   UNL     2     -36.434  10.934 -21.817  1.00  0.00     0.000 Na
ENDROOT
TORSDOF 4
BEGIN_RES ARG D 557
REMARK  4 active torsions:
REMARK  status: ('A' for Active; 'I' for Inactive)
REMARK    1  A    between atoms: CA   and  CB  
REMARK    2  A    between atoms: CB   and  CG  
REMARK    3  A    between atoms: CG   and  CD  
REMARK    4  A    between atoms: CD   and  NE  
REMARK       I    between atoms: NE   and  CZ  
REMARK       I    between atoms: CZ   and  NH1 
REMARK       I    between atoms: CZ   and  NH2 
ROOT
ATOM      1  CA  ARG D 557     -26.217   2.705 -17.014  1.00 35.49     0.159 C 
ENDROOT
BRANCH   1   2
ATOM      2  CB  ARG D 557     -26.789   1.319 -17.183  1.00 35.49     0.034 C 
BRANCH   2   3
ATOM      3  CG  ARG D 557     -25.835   0.204 -17.165  1.00 35.49     0.027 C 
BRANCH   3   4
ATOM      4  CD  ARG D 557     -24.755   0.400 -16.171  1.00 35.49     0.116 C 
BRANCH   4   5
ATOM      5  NE  ARG D 557     -24.916  -0.451 -15.021  1.00 35.49    -0.212 N 
ATOM      6  CZ  ARG D 557     -24.108  -1.426 -14.669  1.00 35.49     0.666 C 
ATOM      7  NH1 ARG D 557     -23.034  -1.745 -15.368  1.00 35.49    -0.235 N 
ATOM      8  NH2 ARG D 557     -24.397  -2.082 -13.583  1.00 35.49    -0.235 N 
ATOM      9  HH  ARG D 557     -22.824  -1.325 -16.085  1.00 35.49     0.174 HD
ATOM     10  HH  ARG D 557     -22.543  -2.388 -15.088  1.00 35.49     0.174 HD
ATOM     11  HH  ARG D 557     -25.092  -1.849 -13.148  1.00 35.49     0.174 HD
ATOM     12  HH  ARG D 557     -23.897  -2.715 -13.321  1.00 35.49     0.174 HD
ATOM     13  HE  ARG D 557     -25.621  -0.363 -14.554  1.00 35.49     0.178 HD
ENDBRANCH   4   5
ENDBRANCH   3   4
ENDBRANCH   2   3
ENDBRANCH   1   2
END_RES ARG D 557
BEGIN_RES GLU D 570
REMARK  3 active torsions:
REMARK  status: ('A' for Active; 'I' for Inactive)
REMARK    5  A    between atoms: CA   and  CB  
REMARK    6  A    between atoms: CB   and  CG  
REMARK    7  A    between atoms: CG   and  CD  
ROOT
ATOM     14  CA  GLU D 570     -18.033  -6.348 -13.375  1.00 32.92     0.160 C 
ENDROOT
BRANCH  14  15
ATOM     15  CB  GLU D 570     -19.500  -6.345 -13.794  1.00 32.92     0.043 C 
BRANCH  15  16
ATOM     16  CG  GLU D 570     -20.440  -5.521 -12.991  1.00 32.92     0.100 C 
BRANCH  16  17
ATOM     17  CD  GLU D 570     -21.731  -5.224 -13.716  1.00 32.92     0.185 C 
ATOM     18  OE1 GLU D 570     -22.334  -4.161 -13.470  1.00 32.92    -0.647 OA
ATOM     19  OE2 GLU D 570     -22.154  -6.071 -14.528  1.00 32.92    -0.647 OA
ENDBRANCH  16  17
ENDBRANCH  15  16
ENDBRANCH  14  15
END_RES GLU D 570
ENDMDL
MODEL 9
REMARK VINA RESULT:      -0.9      5.276      5.332
REMARK  4 active torsions:
REMARK  status: ('A' for Active; 'I' for Inactive)
REMARK    1  A    between atoms: C_4  and  S_26 
REMARK    2  A    between atoms: C_5  and  N_8 
REMARK    3  A    between atoms: N_8  and  C_9 
REMARK    4  A    between atoms: C_12  and  O_15 
ROOT
HETATM    1 NA   UNL     2     -25.311  -5.253  -4.906  1.00  0.00     0.000 Na
ENDROOT
TORSDOF 4
BEGIN_RES ARG D 557
REMARK  4 active torsions:
REMARK  status: ('A' for Active; 'I' for Inactive)
REMARK    1  A    between atoms: CA   and  CB  
REMARK    2  A    between atoms: CB   and  CG  
REMARK    3  A    between atoms: CG   and  CD  
REMARK    4  A    between atoms: CD   and  NE  
REMARK       I    between atoms: NE   and  CZ  
REMARK       I    between atoms: CZ   and  NH1 
REMARK       I    between atoms: CZ   and  NH2 
ROOT
ATOM      1  CA  ARG D 557     -26.217   2.705 -17.014  1.00 35.49     0.159 C 
ENDROOT
BRANCH   1   2
ATOM      2  CB  ARG D 557     -26.789   1.319 -17.183  1.00 35.49     0.034 C 
BRANCH   2   3
ATOM      3  CG  ARG D 557     -25.869   0.194 -16.973  1.00 35.49     0.027 C 
BRANCH   3   4
ATOM      4  CD  ARG D 557     -26.294  -0.681 -15.857  1.00 35.49     0.116 C 
BRANCH   4   5
ATOM      5  NE  ARG D 557     -25.231  -0.915 -14.915  1.00 35.49    -0.212 N 
ATOM      6  CZ  ARG D 557     -24.936  -2.069 -14.360  1.00 35.49     0.666 C 
ATOM      7  NH1 ARG D 557     -25.620  -3.171 -14.609  1.00 35.49    -0.235 N 
ATOM      8  NH2 ARG D 557     -23.923  -2.101 -13.544  1.00 35.49    -0.235 N 
ATOM      9  HH  ARG D 557     -26.288  -3.173 -15.145  1.00 35.49     0.174 HD
ATOM     10  HH  ARG D 557     -25.379  -3.895 -14.220  1.00 35.49     0.174 HD
ATOM     11  HH  ARG D 557     -23.496  -1.375 -13.408  1.00 35.49     0.174 HD
ATOM     12  HH  ARG D 557     -23.700  -2.828 -13.170  1.00 35.49     0.174 HD
ATOM     13  HE  ARG D 557     -24.785  -0.244 -14.642  1.00 35.49     0.178 HD
ENDBRANCH   4   5
ENDBRANCH   3   4
ENDBRANCH   2   3
ENDBRANCH   1   2
END_RES ARG D 557
BEGIN_RES GLU D 570
REMARK  3 active torsions:
REMARK  status: ('A' for Active; 'I' for Inactive)
REMARK    5  A    between atoms: CA   and  CB  
REMARK    6  A    between atoms: CB   and  CG  
REMARK    7  A    between atoms: CG   and  CD  
ROOT
ATOM     14  CA  GLU D 570     -18.033  -6.348 -13.375  1.00 32.92     0.160 C 
ENDROOT
BRANCH  14  15
ATOM     15  CB  GLU D 570     -19.500  -6.345 -13.794  1.00 32.92     0.043 C 
BRANCH  15  16
ATOM     16  CG  GLU D 570     -20.444  -5.543 -12.974  1.00 32.92     0.100 C 
BRANCH  16  17
ATOM     17  CD  GLU D 570     -21.687  -5.138 -13.733  1.00 32.92     0.185 C 
ATOM     18  OE1 GLU D 570     -21.616  -4.973 -14.966  1.00 32.92    -0.647 OA
ATOM     19  OE2 GLU D 570     -22.738  -4.969 -13.086  1.00 32.92    -0.647 OA
ENDBRANCH  16  17
ENDBRANCH  15  16
ENDBRANCH  14  15
END_RES GLU D 570
ENDMDL
