MODEL 1
REMARK VINA RESULT:      -7.0      0.000      0.000
REMARK  18 active torsions:
REMARK  status: ('A' for Active; 'I' for Inactive)
REMARK    1  A    between atoms: C_2  and  C_3 
REMARK    2  A    between atoms: C_3  and  C_4 
REMARK    3  A    between atoms: C_4  and  C_5 
REMARK    4  A    between atoms: C_5  and  C_6 
REMARK    5  A    between atoms: C_6  and  C_7 
REMARK    6  A    between atoms: C_7  and  C_8 
REMARK    7  A    between atoms: C_8  and  O_9 
REMARK    8  A    between atoms: O_9  and  C_10 
REMARK    9  A    between atoms: C_10  and  C_12 
REMARK   10  A    between atoms: C_13  and  C_14 
REMARK   11  A    between atoms: C_14  and  O_16 
REMARK   12  A    between atoms: O_16  and  C_17 
REMARK   13  A    between atoms: C_17  and  C_18 
REMARK   14  A    between atoms: C_18  and  C_19 
REMARK   15  A    between atoms: C_19  and  C_20 
REMARK   16  A    between atoms: C_20  and  C_21 
REMARK   17  A    between atoms: C_21  and  C_22 
REMARK   18  A    between atoms: C_22  and  C_23 
ROOT
HETATM    1  C   UNL     1     -23.562  -3.991 -12.920  1.00  0.00     0.088 C 
HETATM    2  C   UNL     1     -23.979  -3.008 -12.115  1.00  0.00     0.088 C 
ENDROOT
BRANCH   1   3
HETATM    3  C   UNL     1     -23.356  -3.728 -14.367  1.00  0.00     0.283 C 
HETATM    4  O   UNL     1     -22.724  -2.805 -14.829  1.00  0.00    -0.260 OA
BRANCH   3   5
HETATM    5  O   UNL     1     -24.085  -4.637 -15.082  1.00  0.00    -0.318 OA
BRANCH   5   6
HETATM    6  C   UNL     1     -24.009  -5.995 -14.605  1.00  0.00     0.179 C 
BRANCH   6   7
HETATM    7  C   UNL     1     -24.333  -7.039 -15.675  1.00  0.00     0.027 C 
BRANCH   7   8
HETATM    8  C   UNL     1     -25.621  -6.688 -16.444  1.00  0.00     0.002 C 
BRANCH   8   9
HETATM    9  C   UNL     1     -26.884  -7.117 -15.685  1.00  0.00     0.000 C 
BRANCH   9  10
HETATM   10  C   UNL     1     -28.098  -6.266 -16.076  1.00  0.00     0.000 C 
BRANCH  10  11
HETATM   11  C   UNL     1     -29.158  -7.107 -16.792  1.00  0.00    -0.000 C 
BRANCH  11  12
HETATM   12  C   UNL     1     -29.537  -6.502 -18.144  1.00  0.00    -0.005 C 
HETATM   13  C   UNL     1     -28.353  -5.789 -18.777  1.00  0.00     0.005 C 
ENDBRANCH  11  12
ENDBRANCH  10  11
ENDBRANCH   9  10
ENDBRANCH   8   9
ENDBRANCH   7   8
ENDBRANCH   6   7
ENDBRANCH   5   6
ENDBRANCH   3   5
ENDBRANCH   1   3
BRANCH   2  14
HETATM   14  C   UNL     1     -24.222  -3.237 -10.672  1.00  0.00     0.283 C 
HETATM   15  O   UNL     1     -25.322  -3.335 -10.143  1.00  0.00    -0.260 OA
BRANCH  14  16
HETATM   16  O   UNL     1     -23.033  -3.231 -10.000  1.00  0.00    -0.318 OA
BRANCH  16  17
HETATM   17  C   UNL     1     -23.021  -4.019  -8.796  1.00  0.00     0.179 C 
BRANCH  17  18
HETATM   18  C   UNL     1     -21.773  -4.890  -8.640  1.00  0.00     0.027 C 
BRANCH  18  19
HETATM   19  C   UNL     1     -20.488  -4.043  -8.564  1.00  0.00     0.002 C 
BRANCH  19  20
HETATM   20  C   UNL     1     -19.434  -4.674  -7.646  1.00  0.00     0.000 C 
BRANCH  20  21
HETATM   21  C   UNL     1     -20.059  -5.647  -6.640  1.00  0.00     0.000 C 
BRANCH  21  22
HETATM   22  C   UNL     1     -20.331  -4.960  -5.300  1.00  0.00    -0.000 C 
BRANCH  22  23
HETATM   23  C   UNL     1     -21.130  -5.861  -4.359  1.00  0.00    -0.005 C 
HETATM   24  C   UNL     1     -22.248  -6.575  -5.102  1.00  0.00     0.005 C 
ENDBRANCH  22  23
ENDBRANCH  21  22
ENDBRANCH  20  21
ENDBRANCH  19  20
ENDBRANCH  18  19
ENDBRANCH  17  18
ENDBRANCH  16  17
ENDBRANCH  14  16
ENDBRANCH   2  14
TORSDOF 18
BEGIN_RES ARG D 557
REMARK  4 active torsions:
REMARK  status: ('A' for Active; 'I' for Inactive)
REMARK    1  A    between atoms: CA   and  CB  
REMARK    2  A    between atoms: CB   and  CG  
REMARK    3  A    between atoms: CG   and  CD  
REMARK    4  A    between atoms: CD   and  NE  
REMARK       I    between atoms: NE   and  CZ  
REMARK       I    between atoms: CZ   and  NH1 
REMARK       I    between atoms: CZ   and  NH2 
ROOT
ATOM      1  CA  ARG D 557     -26.217   2.705 -17.014  1.00 35.49     0.159 C 
ENDROOT
BRANCH   1   2
ATOM      2  CB  ARG D 557     -26.789   1.319 -17.183  1.00 35.49     0.034 C 
BRANCH   2   3
ATOM      3  CG  ARG D 557     -28.252   1.208 -17.222  1.00 35.49     0.027 C 
BRANCH   3   4
ATOM      4  CD  ARG D 557     -28.742  -0.026 -16.566  1.00 35.49     0.116 C 
BRANCH   4   5
ATOM      5  NE  ARG D 557     -27.669  -0.810 -16.015  1.00 35.49    -0.212 N 
ATOM      6  CZ  ARG D 557     -27.490  -2.100 -16.193  1.00 35.49     0.666 C 
ATOM      7  NH1 ARG D 557     -28.316  -2.838 -16.911  1.00 35.49    -0.235 N 
ATOM      8  NH2 ARG D 557     -26.448  -2.644 -15.635  1.00 35.49    -0.235 N 
ATOM      9  HH  ARG D 557     -29.007  -2.500 -17.290  1.00 35.49     0.174 HD
ATOM     10  HH  ARG D 557     -28.147  -3.673 -16.995  1.00 35.49     0.174 HD
ATOM     11  HH  ARG D 557     -25.928  -2.141 -15.183  1.00 35.49     0.174 HD
ATOM     12  HH  ARG D 557     -26.297  -3.473 -15.730  1.00 35.49     0.174 HD
ATOM     13  HE  ARG D 557     -27.130  -0.428 -15.479  1.00 35.49     0.178 HD
ENDBRANCH   4   5
ENDBRANCH   3   4
ENDBRANCH   2   3
ENDBRANCH   1   2
END_RES ARG D 557
BEGIN_RES GLU D 570
REMARK  3 active torsions:
REMARK  status: ('A' for Active; 'I' for Inactive)
REMARK    5  A    between atoms: CA   and  CB  
REMARK    6  A    between atoms: CB   and  CG  
REMARK    7  A    between atoms: CG   and  CD  
ROOT
ATOM     14  CA  GLU D 570     -18.033  -6.348 -13.375  1.00 32.92     0.160 C 
ENDROOT
BRANCH  14  15
ATOM     15  CB  GLU D 570     -19.500  -6.345 -13.794  1.00 32.92     0.043 C 
BRANCH  15  16
ATOM     16  CG  GLU D 570     -20.090  -7.637 -14.229  1.00 32.92     0.100 C 
BRANCH  16  17
ATOM     17  CD  GLU D 570     -20.700  -7.571 -15.610  1.00 32.92     0.185 C 
ATOM     18  OE1 GLU D 570     -20.786  -6.467 -16.182  1.00 32.92    -0.647 OA
ATOM     19  OE2 GLU D 570     -21.111  -8.633 -16.119  1.00 32.92    -0.647 OA
ENDBRANCH  16  17
ENDBRANCH  15  16
ENDBRANCH  14  15
END_RES GLU D 570
ENDMDL
MODEL 2
REMARK VINA RESULT:      -6.9      3.289      9.753
REMARK  18 active torsions:
REMARK  status: ('A' for Active; 'I' for Inactive)
REMARK    1  A    between atoms: C_2  and  C_3 
REMARK    2  A    between atoms: C_3  and  C_4 
REMARK    3  A    between atoms: C_4  and  C_5 
REMARK    4  A    between atoms: C_5  and  C_6 
REMARK    5  A    between atoms: C_6  and  C_7 
REMARK    6  A    between atoms: C_7  and  C_8 
REMARK    7  A    between atoms: C_8  and  O_9 
REMARK    8  A    between atoms: O_9  and  C_10 
REMARK    9  A    between atoms: C_10  and  C_12 
REMARK   10  A    between atoms: C_13  and  C_14 
REMARK   11  A    between atoms: C_14  and  O_16 
REMARK   12  A    between atoms: O_16  and  C_17 
REMARK   13  A    between atoms: C_17  and  C_18 
REMARK   14  A    between atoms: C_18  and  C_19 
REMARK   15  A    between atoms: C_19  and  C_20 
REMARK   16  A    between atoms: C_20  and  C_21 
REMARK   17  A    between atoms: C_21  and  C_22 
REMARK   18  A    between atoms: C_22  and  C_23 
ROOT
HETATM    1  C   UNL     1     -21.117  -5.537  -5.689  1.00  0.00     0.088 C 
HETATM    2  C   UNL     1     -20.758  -5.638  -6.974  1.00  0.00     0.088 C 
ENDROOT
BRANCH   1   3
HETATM    3  C   UNL     1     -21.688  -6.712  -4.984  1.00  0.00     0.283 C 
HETATM    4  O   UNL     1     -21.632  -7.857  -5.372  1.00  0.00    -0.260 OA
BRANCH   3   5
HETATM    5  O   UNL     1     -22.376  -6.270  -3.888  1.00  0.00    -0.318 OA
BRANCH   5   6
HETATM    6  C   UNL     1     -21.601  -6.176  -2.677  1.00  0.00     0.179 C 
BRANCH   6   7
HETATM    7  C   UNL     1     -21.727  -7.404  -1.772  1.00  0.00     0.027 C 
BRANCH   7   8
HETATM    8  C   UNL     1     -22.388  -7.055  -0.426  1.00  0.00     0.002 C 
BRANCH   8   9
HETATM    9  C   UNL     1     -22.796  -8.307   0.361  1.00  0.00     0.000 C 
BRANCH   9  10
HETATM   10  C   UNL     1     -21.631  -9.293   0.505  1.00  0.00     0.000 C 
BRANCH  10  11
HETATM   11  C   UNL     1     -22.082 -10.730   0.231  1.00  0.00    -0.000 C 
BRANCH  11  12
HETATM   12  C   UNL     1     -23.558 -10.790  -0.166  1.00  0.00    -0.005 C 
HETATM   13  C   UNL     1     -23.723 -11.311  -1.584  1.00  0.00     0.005 C 
ENDBRANCH  11  12
ENDBRANCH  10  11
ENDBRANCH   9  10
ENDBRANCH   8   9
ENDBRANCH   7   8
ENDBRANCH   6   7
ENDBRANCH   5   6
ENDBRANCH   3   5
ENDBRANCH   1   3
BRANCH   2  14
HETATM   14  C   UNL     1     -20.210  -4.481  -7.719  1.00  0.00     0.283 C 
HETATM   15  O   UNL     1     -19.020  -4.241  -7.885  1.00  0.00    -0.260 OA
BRANCH  14  16
HETATM   16  O   UNL     1     -21.230  -3.666  -8.117  1.00  0.00    -0.318 OA
BRANCH  16  17
HETATM   17  C   UNL     1     -22.043  -4.198  -9.179  1.00  0.00     0.179 C 
BRANCH  17  18
HETATM   18  C   UNL     1     -21.325  -4.274 -10.528  1.00  0.00     0.027 C 
BRANCH  18  19
HETATM   19  C   UNL     1     -21.648  -3.060 -11.419  1.00  0.00     0.002 C 
BRANCH  19  20
HETATM   20  C   UNL     1     -22.983  -3.224 -12.157  1.00  0.00     0.000 C 
BRANCH  20  21
HETATM   21  C   UNL     1     -22.856  -2.893 -13.648  1.00  0.00     0.000 C 
BRANCH  21  22
HETATM   22  C   UNL     1     -22.548  -4.148 -14.470  1.00  0.00    -0.000 C 
BRANCH  22  23
HETATM   23  C   UNL     1     -23.097  -5.407 -13.799  1.00  0.00    -0.005 C 
HETATM   24  C   UNL     1     -24.067  -6.137 -14.714  1.00  0.00     0.005 C 
ENDBRANCH  22  23
ENDBRANCH  21  22
ENDBRANCH  20  21
ENDBRANCH  19  20
ENDBRANCH  18  19
ENDBRANCH  17  18
ENDBRANCH  16  17
ENDBRANCH  14  16
ENDBRANCH   2  14
TORSDOF 18
BEGIN_RES ARG D 557
REMARK  4 active torsions:
REMARK  status: ('A' for Active; 'I' for Inactive)
REMARK    1  A    between atoms: CA   and  CB  
REMARK    2  A    between atoms: CB   and  CG  
REMARK    3  A    between atoms: CG   and  CD  
REMARK    4  A    between atoms: CD   and  NE  
REMARK       I    between atoms: NE   and  CZ  
REMARK       I    between atoms: CZ   and  NH1 
REMARK       I    between atoms: CZ   and  NH2 
ROOT
ATOM      1  CA  ARG D 557     -26.217   2.705 -17.014  1.00 35.49     0.159 C 
ENDROOT
BRANCH   1   2
ATOM      2  CB  ARG D 557     -26.789   1.319 -17.183  1.00 35.49     0.034 C 
BRANCH   2   3
ATOM      3  CG  ARG D 557     -28.230   1.227 -17.450  1.00 35.49     0.027 C 
BRANCH   3   4
ATOM      4  CD  ARG D 557     -28.911   0.273 -16.545  1.00 35.49     0.116 C 
BRANCH   4   5
ATOM      5  NE  ARG D 557     -28.108  -0.892 -16.281  1.00 35.49    -0.212 N 
ATOM      6  CZ  ARG D 557     -28.359  -2.111 -16.705  1.00 35.49     0.666 C 
ATOM      7  NH1 ARG D 557     -29.421  -2.404 -17.432  1.00 35.49    -0.235 N 
ATOM      8  NH2 ARG D 557     -27.509  -3.044 -16.387  1.00 35.49    -0.235 N 
ATOM      9  HH  ARG D 557     -29.993  -1.805 -17.654  1.00 35.49     0.174 HD
ATOM     10  HH  ARG D 557     -29.532  -3.216 -17.682  1.00 35.49     0.174 HD
ATOM     11  HH  ARG D 557     -26.828  -2.824 -15.923  1.00 35.49     0.174 HD
ATOM     12  HH  ARG D 557     -27.635  -3.841 -16.646  1.00 35.49     0.174 HD
ATOM     13  HE  ARG D 557     -27.442  -0.808 -15.759  1.00 35.49     0.178 HD
ENDBRANCH   4   5
ENDBRANCH   3   4
ENDBRANCH   2   3
ENDBRANCH   1   2
END_RES ARG D 557
BEGIN_RES GLU D 570
REMARK  3 active torsions:
REMARK  status: ('A' for Active; 'I' for Inactive)
REMARK    5  A    between atoms: CA   and  CB  
REMARK    6  A    between atoms: CB   and  CG  
REMARK    7  A    between atoms: CG   and  CD  
ROOT
ATOM     14  CA  GLU D 570     -18.033  -6.348 -13.375  1.00 32.92     0.160 C 
ENDROOT
BRANCH  14  15
ATOM     15  CB  GLU D 570     -19.500  -6.345 -13.794  1.00 32.92     0.043 C 
BRANCH  15  16
ATOM     16  CG  GLU D 570     -20.102  -7.645 -14.190  1.00 32.92     0.100 C 
BRANCH  16  17
ATOM     17  CD  GLU D 570     -20.533  -7.678 -15.637  1.00 32.92     0.185 C 
ATOM     18  OE1 GLU D 570     -20.695  -8.780 -16.195  1.00 32.92    -0.647 OA
ATOM     19  OE2 GLU D 570     -20.695  -6.590 -16.224  1.00 32.92    -0.647 OA
ENDBRANCH  16  17
ENDBRANCH  15  16
ENDBRANCH  14  15
END_RES GLU D 570
ENDMDL
MODEL 3
REMARK VINA RESULT:      -6.7      4.289      9.854
REMARK  18 active torsions:
REMARK  status: ('A' for Active; 'I' for Inactive)
REMARK    1  A    between atoms: C_2  and  C_3 
REMARK    2  A    between atoms: C_3  and  C_4 
REMARK    3  A    between atoms: C_4  and  C_5 
REMARK    4  A    between atoms: C_5  and  C_6 
REMARK    5  A    between atoms: C_6  and  C_7 
REMARK    6  A    between atoms: C_7  and  C_8 
REMARK    7  A    between atoms: C_8  and  O_9 
REMARK    8  A    between atoms: O_9  and  C_10 
REMARK    9  A    between atoms: C_10  and  C_12 
REMARK   10  A    between atoms: C_13  and  C_14 
REMARK   11  A    between atoms: C_14  and  O_16 
REMARK   12  A    between atoms: O_16  and  C_17 
REMARK   13  A    between atoms: C_17  and  C_18 
REMARK   14  A    between atoms: C_18  and  C_19 
REMARK   15  A    between atoms: C_19  and  C_20 
REMARK   16  A    between atoms: C_20  and  C_21 
REMARK   17  A    between atoms: C_21  and  C_22 
REMARK   18  A    between atoms: C_22  and  C_23 
ROOT
HETATM    1  C   UNL     1     -21.591  -8.790  -4.494  1.00  0.00     0.088 C 
HETATM    2  C   UNL     1     -20.918  -7.677  -4.808  1.00  0.00     0.088 C 
ENDROOT
BRANCH   1   3
HETATM    3  C   UNL     1     -21.067 -10.116  -4.910  1.00  0.00     0.283 C 
HETATM    4  O   UNL     1     -20.908 -10.480  -6.053  1.00  0.00    -0.260 OA
BRANCH   3   5
HETATM    5  O   UNL     1     -20.899 -10.886  -3.793  1.00  0.00    -0.318 OA
BRANCH   5   6
HETATM    6  C   UNL     1     -21.851 -11.956  -3.638  1.00  0.00     0.179 C 
BRANCH   6   7
HETATM    7  C   UNL     1     -22.387 -12.099  -2.212  1.00  0.00     0.027 C 
BRANCH   7   8
HETATM    8  C   UNL     1     -23.454 -11.035  -1.894  1.00  0.00     0.002 C 
BRANCH   8   9
HETATM    9  C   UNL     1     -23.620 -10.814  -0.385  1.00  0.00     0.000 C 
BRANCH   9  10
HETATM   10  C   UNL     1     -22.571  -9.842   0.166  1.00  0.00     0.000 C 
BRANCH  10  11
HETATM   11  C   UNL     1     -23.143  -8.430   0.310  1.00  0.00    -0.000 C 
BRANCH  11  12
HETATM   12  C   UNL     1     -22.287  -7.398  -0.424  1.00  0.00    -0.005 C 
HETATM   13  C   UNL     1     -21.005  -8.023  -0.950  1.00  0.00     0.005 C 
ENDBRANCH  11  12
ENDBRANCH  10  11
ENDBRANCH   9  10
ENDBRANCH   8   9
ENDBRANCH   7   8
ENDBRANCH   6   7
ENDBRANCH   5   6
ENDBRANCH   3   5
ENDBRANCH   1   3
BRANCH   2  14
HETATM   14  C   UNL     1     -21.422  -6.335  -4.435  1.00  0.00     0.283 C 
HETATM   15  O   UNL     1     -22.313  -6.110  -3.625  1.00  0.00    -0.260 OA
BRANCH  14  16
HETATM   16  O   UNL     1     -20.808  -5.386  -5.200  1.00  0.00    -0.318 OA
BRANCH  16  17
HETATM   17  C   UNL     1     -21.525  -5.021  -6.393  1.00  0.00     0.179 C 
BRANCH  17  18
HETATM   18  C   UNL     1     -20.981  -3.767  -7.082  1.00  0.00     0.027 C 
BRANCH  18  19
HETATM   19  C   UNL     1     -19.819  -4.097  -8.038  1.00  0.00     0.002 C 
BRANCH  19  20
HETATM   20  C   UNL     1     -20.314  -4.616  -9.393  1.00  0.00     0.000 C 
BRANCH  20  21
HETATM   21  C   UNL     1     -20.605  -3.473 -10.371  1.00  0.00     0.000 C 
BRANCH  21  22
HETATM   22  C   UNL     1     -22.109  -3.316 -10.610  1.00  0.00    -0.000 C 
BRANCH  22  23
HETATM   23  C   UNL     1     -22.883  -4.549 -10.145  1.00  0.00    -0.005 C 
HETATM   24  C   UNL     1     -24.048  -4.159  -9.249  1.00  0.00     0.005 C 
ENDBRANCH  22  23
ENDBRANCH  21  22
ENDBRANCH  20  21
ENDBRANCH  19  20
ENDBRANCH  18  19
ENDBRANCH  17  18
ENDBRANCH  16  17
ENDBRANCH  14  16
ENDBRANCH   2  14
TORSDOF 18
BEGIN_RES ARG D 557
REMARK  4 active torsions:
REMARK  status: ('A' for Active; 'I' for Inactive)
REMARK    1  A    between atoms: CA   and  CB  
REMARK    2  A    between atoms: CB   and  CG  
REMARK    3  A    between atoms: CG   and  CD  
REMARK    4  A    between atoms: CD   and  NE  
REMARK       I    between atoms: NE   and  CZ  
REMARK       I    between atoms: CZ   and  NH1 
REMARK       I    between atoms: CZ   and  NH2 
ROOT
ATOM      1  CA  ARG D 557     -26.217   2.705 -17.014  1.00 35.49     0.159 C 
ENDROOT
BRANCH   1   2
ATOM      2  CB  ARG D 557     -26.789   1.319 -17.183  1.00 35.49     0.034 C 
BRANCH   2   3
ATOM      3  CG  ARG D 557     -25.838   0.202 -17.136  1.00 35.49     0.027 C 
BRANCH   3   4
ATOM      4  CD  ARG D 557     -24.748   0.429 -16.160  1.00 35.49     0.116 C 
BRANCH   4   5
ATOM      5  NE  ARG D 557     -24.870  -0.419 -15.004  1.00 35.49    -0.212 N 
ATOM      6  CZ  ARG D 557     -24.045  -1.386 -14.670  1.00 35.49     0.666 C 
ATOM      7  NH1 ARG D 557     -22.988  -1.700 -15.398  1.00 35.49    -0.235 N 
ATOM      8  NH2 ARG D 557     -24.298  -2.040 -13.574  1.00 35.49    -0.235 N 
ATOM      9  HH  ARG D 557     -22.801  -1.281 -16.122  1.00 35.49     0.174 HD
ATOM     10  HH  ARG D 557     -22.484  -2.339 -15.129  1.00 35.49     0.174 HD
ATOM     11  HH  ARG D 557     -24.983  -1.811 -13.121  1.00 35.49     0.174 HD
ATOM     12  HH  ARG D 557     -23.787  -2.668 -13.324  1.00 35.49     0.174 HD
ATOM     13  HE  ARG D 557     -25.562  -0.334 -14.518  1.00 35.49     0.178 HD
ENDBRANCH   4   5
ENDBRANCH   3   4
ENDBRANCH   2   3
ENDBRANCH   1   2
END_RES ARG D 557
BEGIN_RES GLU D 570
REMARK  3 active torsions:
REMARK  status: ('A' for Active; 'I' for Inactive)
REMARK    5  A    between atoms: CA   and  CB  
REMARK    6  A    between atoms: CB   and  CG  
REMARK    7  A    between atoms: CG   and  CD  
ROOT
ATOM     14  CA  GLU D 570     -18.033  -6.348 -13.375  1.00 32.92     0.160 C 
ENDROOT
BRANCH  14  15
ATOM     15  CB  GLU D 570     -19.500  -6.345 -13.794  1.00 32.92     0.043 C 
BRANCH  15  16
ATOM     16  CG  GLU D 570     -20.423  -5.451 -13.049  1.00 32.92     0.100 C 
BRANCH  16  17
ATOM     17  CD  GLU D 570     -21.744  -5.247 -13.754  1.00 32.92     0.185 C 
ATOM     18  OE1 GLU D 570     -22.316  -6.230 -14.263  1.00 32.92    -0.647 OA
ATOM     19  OE2 GLU D 570     -22.203  -4.089 -13.812  1.00 32.92    -0.647 OA
ENDBRANCH  16  17
ENDBRANCH  15  16
ENDBRANCH  14  15
END_RES GLU D 570
ENDMDL
MODEL 4
REMARK VINA RESULT:      -6.7      5.026     10.841
REMARK  18 active torsions:
REMARK  status: ('A' for Active; 'I' for Inactive)
REMARK    1  A    between atoms: C_2  and  C_3 
REMARK    2  A    between atoms: C_3  and  C_4 
REMARK    3  A    between atoms: C_4  and  C_5 
REMARK    4  A    between atoms: C_5  and  C_6 
REMARK    5  A    between atoms: C_6  and  C_7 
REMARK    6  A    between atoms: C_7  and  C_8 
REMARK    7  A    between atoms: C_8  and  O_9 
REMARK    8  A    between atoms: O_9  and  C_10 
REMARK    9  A    between atoms: C_10  and  C_12 
REMARK   10  A    between atoms: C_13  and  C_14 
REMARK   11  A    between atoms: C_14  and  O_16 
REMARK   12  A    between atoms: O_16  and  C_17 
REMARK   13  A    between atoms: C_17  and  C_18 
REMARK   14  A    between atoms: C_18  and  C_19 
REMARK   15  A    between atoms: C_19  and  C_20 
REMARK   16  A    between atoms: C_20  and  C_21 
REMARK   17  A    between atoms: C_21  and  C_22 
REMARK   18  A    between atoms: C_22  and  C_23 
ROOT
HETATM    1  C   UNL     1     -21.385  -7.918  -3.026  1.00  0.00     0.088 C 
HETATM    2  C   UNL     1     -21.370  -7.249  -4.184  1.00  0.00     0.088 C 
ENDROOT
BRANCH   1   3
HETATM    3  C   UNL     1     -21.603  -7.189  -1.751  1.00  0.00     0.283 C 
HETATM    4  O   UNL     1     -22.170  -6.126  -1.641  1.00  0.00    -0.260 OA
BRANCH   3   5
HETATM    5  O   UNL     1     -20.964  -7.865  -0.749  1.00  0.00    -0.318 OA
BRANCH   5   6
HETATM    6  C   UNL     1     -21.753  -8.093   0.435  1.00  0.00     0.179 C 
BRANCH   6   7
HETATM    7  C   UNL     1     -23.044  -8.870   0.171  1.00  0.00     0.027 C 
BRANCH   7   8
HETATM    8  C   UNL     1     -22.759 -10.291  -0.350  1.00  0.00     0.002 C 
BRANCH   8   9
HETATM    9  C   UNL     1     -24.000 -11.190  -0.290  1.00  0.00     0.000 C 
BRANCH   9  10
HETATM   10  C   UNL     1     -23.659 -12.598   0.211  1.00  0.00     0.000 C 
BRANCH  10  11
HETATM   11  C   UNL     1     -22.288 -12.629   0.890  1.00  0.00    -0.000 C 
BRANCH  11  12
HETATM   12  C   UNL     1     -22.234 -13.678   2.002  1.00  0.00    -0.005 C 
HETATM   13  C   UNL     1     -23.631 -14.114   2.413  1.00  0.00     0.005 C 
ENDBRANCH  11  12
ENDBRANCH  10  11
ENDBRANCH   9  10
ENDBRANCH   8   9
ENDBRANCH   7   8
ENDBRANCH   6   7
ENDBRANCH   5   6
ENDBRANCH   3   5
ENDBRANCH   1   3
BRANCH   2  14
HETATM   14  C   UNL     1     -21.128  -7.937  -5.474  1.00  0.00     0.283 C 
HETATM   15  O   UNL     1     -21.105  -9.150  -5.640  1.00  0.00    -0.260 OA
BRANCH  14  16
HETATM   16  O   UNL     1     -20.841  -7.015  -6.439  1.00  0.00    -0.318 OA
BRANCH  16  17
HETATM   17  C   UNL     1     -20.425  -5.731  -5.937  1.00  0.00     0.179 C 
BRANCH  17  18
HETATM   18  C   UNL     1     -20.036  -4.736  -7.033  1.00  0.00     0.027 C 
BRANCH  18  19
HETATM   19  C   UNL     1     -21.093  -3.629  -7.204  1.00  0.00     0.002 C 
BRANCH  19  20
HETATM   20  C   UNL     1     -22.453  -4.191  -7.635  1.00  0.00     0.000 C 
BRANCH  20  21
HETATM   21  C   UNL     1     -22.878  -3.667  -9.012  1.00  0.00     0.000 C 
BRANCH  21  22
HETATM   22  C   UNL     1     -22.909  -4.792 -10.049  1.00  0.00    -0.000 C 
BRANCH  22  23
HETATM   23  C   UNL     1     -22.334  -4.337 -11.389  1.00  0.00    -0.005 C 
HETATM   24  C   UNL     1     -20.858  -3.991 -11.263  1.00  0.00     0.005 C 
ENDBRANCH  22  23
ENDBRANCH  21  22
ENDBRANCH  20  21
ENDBRANCH  19  20
ENDBRANCH  18  19
ENDBRANCH  17  18
ENDBRANCH  16  17
ENDBRANCH  14  16
ENDBRANCH   2  14
TORSDOF 18
BEGIN_RES ARG D 557
REMARK  4 active torsions:
REMARK  status: ('A' for Active; 'I' for Inactive)
REMARK    1  A    between atoms: CA   and  CB  
REMARK    2  A    between atoms: CB   and  CG  
REMARK    3  A    between atoms: CG   and  CD  
REMARK    4  A    between atoms: CD   and  NE  
REMARK       I    between atoms: NE   and  CZ  
REMARK       I    between atoms: CZ   and  NH1 
REMARK       I    between atoms: CZ   and  NH2 
ROOT
ATOM      1  CA  ARG D 557     -26.217   2.705 -17.014  1.00 35.49     0.159 C 
ENDROOT
BRANCH   1   2
ATOM      2  CB  ARG D 557     -26.789   1.319 -17.183  1.00 35.49     0.034 C 
BRANCH   2   3
ATOM      3  CG  ARG D 557     -25.927   0.196 -16.794  1.00 35.49     0.027 C 
BRANCH   3   4
ATOM      4  CD  ARG D 557     -26.669  -0.863 -16.074  1.00 35.49     0.116 C 
BRANCH   4   5
ATOM      5  NE  ARG D 557     -25.879  -1.469 -15.035  1.00 35.49    -0.212 N 
ATOM      6  CZ  ARG D 557     -25.891  -2.740 -14.703  1.00 35.49     0.666 C 
ATOM      7  NH1 ARG D 557     -26.669  -3.622 -15.303  1.00 35.49    -0.235 N 
ATOM      8  NH2 ARG D 557     -25.091  -3.119 -13.749  1.00 35.49    -0.235 N 
ATOM      9  HH  ARG D 557     -27.202  -3.395 -15.935  1.00 35.49     0.174 HD
ATOM     10  HH  ARG D 557     -26.632  -4.439 -15.046  1.00 35.49     0.174 HD
ATOM     11  HH  ARG D 557     -24.594  -2.529 -13.385  1.00 35.49     0.174 HD
ATOM     12  HH  ARG D 557     -25.068  -3.932 -13.510  1.00 35.49     0.174 HD
ATOM     13  HE  ARG D 557     -25.401  -0.960 -14.548  1.00 35.49     0.178 HD
ENDBRANCH   4   5
ENDBRANCH   3   4
ENDBRANCH   2   3
ENDBRANCH   1   2
END_RES ARG D 557
BEGIN_RES GLU D 570
REMARK  3 active torsions:
REMARK  status: ('A' for Active; 'I' for Inactive)
REMARK    5  A    between atoms: CA   and  CB  
REMARK    6  A    between atoms: CB   and  CG  
REMARK    7  A    between atoms: CG   and  CD  
ROOT
ATOM     14  CA  GLU D 570     -18.033  -6.348 -13.375  1.00 32.92     0.160 C 
ENDROOT
BRANCH  14  15
ATOM     15  CB  GLU D 570     -19.500  -6.345 -13.794  1.00 32.92     0.043 C 
BRANCH  15  16
ATOM     16  CG  GLU D 570     -19.812  -5.943 -15.190  1.00 32.92     0.100 C 
BRANCH  16  17
ATOM     17  CD  GLU D 570     -21.263  -5.570 -15.385  1.00 32.92     0.185 C 
ATOM     18  OE1 GLU D 570     -22.111  -5.992 -14.575  1.00 32.92    -0.647 OA
ATOM     19  OE2 GLU D 570     -21.558  -4.862 -16.368  1.00 32.92    -0.647 OA
ENDBRANCH  16  17
ENDBRANCH  15  16
ENDBRANCH  14  15
END_RES GLU D 570
ENDMDL
MODEL 5
REMARK VINA RESULT:      -6.6      4.737      8.854
REMARK  18 active torsions:
REMARK  status: ('A' for Active; 'I' for Inactive)
REMARK    1  A    between atoms: C_2  and  C_3 
REMARK    2  A    between atoms: C_3  and  C_4 
REMARK    3  A    between atoms: C_4  and  C_5 
REMARK    4  A    between atoms: C_5  and  C_6 
REMARK    5  A    between atoms: C_6  and  C_7 
REMARK    6  A    between atoms: C_7  and  C_8 
REMARK    7  A    between atoms: C_8  and  O_9 
REMARK    8  A    between atoms: O_9  and  C_10 
REMARK    9  A    between atoms: C_10  and  C_12 
REMARK   10  A    between atoms: C_13  and  C_14 
REMARK   11  A    between atoms: C_14  and  O_16 
REMARK   12  A    between atoms: O_16  and  C_17 
REMARK   13  A    between atoms: C_17  and  C_18 
REMARK   14  A    between atoms: C_18  and  C_19 
REMARK   15  A    between atoms: C_19  and  C_20 
REMARK   16  A    between atoms: C_20  and  C_21 
REMARK   17  A    between atoms: C_21  and  C_22 
REMARK   18  A    between atoms: C_22  and  C_23 
ROOT
HETATM    1  C   UNL     1     -20.841  -7.516  -3.130  1.00  0.00     0.088 C 
HETATM    2  C   UNL     1     -21.189  -8.792  -3.334  1.00  0.00     0.088 C 
ENDROOT
BRANCH   1   3
HETATM    3  C   UNL     1     -21.884  -6.460  -3.090  1.00  0.00     0.283 C 
HETATM    4  O   UNL     1     -22.463  -6.085  -2.096  1.00  0.00    -0.260 OA
BRANCH   3   5
HETATM    5  O   UNL     1     -22.153  -6.065  -4.371  1.00  0.00    -0.318 OA
BRANCH   5   6
HETATM    6  C   UNL     1     -21.005  -5.653  -5.138  1.00  0.00     0.179 C 
BRANCH   6   7
HETATM    7  C   UNL     1     -20.984  -6.214  -6.561  1.00  0.00     0.027 C 
BRANCH   7   8
HETATM    8  C   UNL     1     -19.885  -5.558  -7.418  1.00  0.00     0.002 C 
BRANCH   8   9
HETATM    9  C   UNL     1     -20.347  -4.234  -8.039  1.00  0.00     0.000 C 
BRANCH   9  10
HETATM   10  C   UNL     1     -20.505  -4.343  -9.560  1.00  0.00     0.000 C 
BRANCH  10  11
HETATM   11  C   UNL     1     -21.858  -3.794 -10.019  1.00  0.00    -0.000 C 
BRANCH  11  12
HETATM   12  C   UNL     1     -22.970  -4.137  -9.026  1.00  0.00    -0.005 C 
HETATM   13  C   UNL     1     -24.286  -3.493  -9.434  1.00  0.00     0.005 C 
ENDBRANCH  11  12
ENDBRANCH  10  11
ENDBRANCH   9  10
ENDBRANCH   8   9
ENDBRANCH   7   8
ENDBRANCH   6   7
ENDBRANCH   5   6
ENDBRANCH   3   5
ENDBRANCH   1   3
BRANCH   2  14
HETATM   14  C   UNL     1     -20.176  -9.870  -3.408  1.00  0.00     0.283 C 
HETATM   15  O   UNL     1     -18.962  -9.708  -3.379  1.00  0.00    -0.260 OA
BRANCH  14  16
HETATM   16  O   UNL     1     -20.796 -11.070  -3.607  1.00  0.00    -0.318 OA
BRANCH  16  17
HETATM   17  C   UNL     1     -21.188 -11.750  -2.401  1.00  0.00     0.179 C 
BRANCH  17  18
HETATM   18  C   UNL     1     -22.349 -12.728  -2.593  1.00  0.00     0.027 C 
BRANCH  18  19
HETATM   19  C   UNL     1     -23.394 -12.606  -1.468  1.00  0.00     0.002 C 
BRANCH  19  20
HETATM   20  C   UNL     1     -23.882 -11.164  -1.286  1.00  0.00     0.000 C 
BRANCH  20  21
HETATM   21  C   UNL     1     -23.466 -10.586   0.072  1.00  0.00     0.000 C 
BRANCH  21  22
HETATM   22  C   UNL     1     -23.059  -9.116  -0.051  1.00  0.00    -0.000 C 
BRANCH  22  23
HETATM   23  C   UNL     1     -21.594  -8.906   0.331  1.00  0.00    -0.005 C 
HETATM   24  C   UNL     1     -20.977 -10.188   0.866  1.00  0.00     0.005 C 
ENDBRANCH  22  23
ENDBRANCH  21  22
ENDBRANCH  20  21
ENDBRANCH  19  20
ENDBRANCH  18  19
ENDBRANCH  17  18
ENDBRANCH  16  17
ENDBRANCH  14  16
ENDBRANCH   2  14
TORSDOF 18
BEGIN_RES ARG D 557
REMARK  4 active torsions:
REMARK  status: ('A' for Active; 'I' for Inactive)
REMARK    1  A    between atoms: CA   and  CB  
REMARK    2  A    between atoms: CB   and  CG  
REMARK    3  A    between atoms: CG   and  CD  
REMARK    4  A    between atoms: CD   and  NE  
REMARK       I    between atoms: NE   and  CZ  
REMARK       I    between atoms: CZ   and  NH1 
REMARK       I    between atoms: CZ   and  NH2 
ROOT
ATOM      1  CA  ARG D 557     -26.217   2.705 -17.014  1.00 35.49     0.159 C 
ENDROOT
BRANCH   1   2
ATOM      2  CB  ARG D 557     -26.789   1.319 -17.183  1.00 35.49     0.034 C 
BRANCH   2   3
ATOM      3  CG  ARG D 557     -25.836   0.203 -17.150  1.00 35.49     0.027 C 
BRANCH   3   4
ATOM      4  CD  ARG D 557     -24.753   0.414 -16.162  1.00 35.49     0.116 C 
BRANCH   4   5
ATOM      5  NE  ARG D 557     -24.894  -0.439 -15.012  1.00 35.49    -0.212 N 
ATOM      6  CZ  ARG D 557     -24.076  -1.409 -14.670  1.00 35.49     0.666 C 
ATOM      7  NH1 ARG D 557     -23.009  -1.720 -15.383  1.00 35.49    -0.235 N 
ATOM      8  NH2 ARG D 557     -24.347  -2.068 -13.581  1.00 35.49    -0.235 N 
ATOM      9  HH  ARG D 557     -22.810  -1.299 -16.102  1.00 35.49     0.174 HD
ATOM     10  HH  ARG D 557     -22.510  -2.361 -15.110  1.00 35.49     0.174 HD
ATOM     11  HH  ARG D 557     -25.038  -1.840 -13.137  1.00 35.49     0.174 HD
ATOM     12  HH  ARG D 557     -23.840  -2.698 -13.327  1.00 35.49     0.174 HD
ATOM     13  HE  ARG D 557     -25.594  -0.356 -14.536  1.00 35.49     0.178 HD
ENDBRANCH   4   5
ENDBRANCH   3   4
ENDBRANCH   2   3
ENDBRANCH   1   2
END_RES ARG D 557
BEGIN_RES GLU D 570
REMARK  3 active torsions:
REMARK  status: ('A' for Active; 'I' for Inactive)
REMARK    5  A    between atoms: CA   and  CB  
REMARK    6  A    between atoms: CB   and  CG  
REMARK    7  A    between atoms: CG   and  CD  
ROOT
ATOM     14  CA  GLU D 570     -18.033  -6.348 -13.375  1.00 32.92     0.160 C 
ENDROOT
BRANCH  14  15
ATOM     15  CB  GLU D 570     -19.500  -6.345 -13.794  1.00 32.92     0.043 C 
BRANCH  15  16
ATOM     16  CG  GLU D 570     -20.439  -5.518 -12.993  1.00 32.92     0.100 C 
BRANCH  16  17
ATOM     17  CD  GLU D 570     -21.738  -5.237 -13.713  1.00 32.92     0.185 C 
ATOM     18  OE1 GLU D 570     -22.306  -4.143 -13.531  1.00 32.92    -0.647 OA
ATOM     19  OE2 GLU D 570     -22.200  -6.127 -14.453  1.00 32.92    -0.647 OA
ENDBRANCH  16  17
ENDBRANCH  15  16
ENDBRANCH  14  15
END_RES GLU D 570
ENDMDL
MODEL 6
REMARK VINA RESULT:      -6.6      4.333     10.460
REMARK  18 active torsions:
REMARK  status: ('A' for Active; 'I' for Inactive)
REMARK    1  A    between atoms: C_2  and  C_3 
REMARK    2  A    between atoms: C_3  and  C_4 
REMARK    3  A    between atoms: C_4  and  C_5 
REMARK    4  A    between atoms: C_5  and  C_6 
REMARK    5  A    between atoms: C_6  and  C_7 
REMARK    6  A    between atoms: C_7  and  C_8 
REMARK    7  A    between atoms: C_8  and  O_9 
REMARK    8  A    between atoms: O_9  and  C_10 
REMARK    9  A    between atoms: C_10  and  C_12 
REMARK   10  A    between atoms: C_13  and  C_14 
REMARK   11  A    between atoms: C_14  and  O_16 
REMARK   12  A    between atoms: O_16  and  C_17 
REMARK   13  A    between atoms: C_17  and  C_18 
REMARK   14  A    between atoms: C_18  and  C_19 
REMARK   15  A    between atoms: C_19  and  C_20 
REMARK   16  A    between atoms: C_20  and  C_21 
REMARK   17  A    between atoms: C_21  and  C_22 
REMARK   18  A    between atoms: C_22  and  C_23 
ROOT
HETATM    1  C   UNL     1     -21.533  -7.708  -3.247  1.00  0.00     0.088 C 
HETATM    2  C   UNL     1     -21.523  -7.072  -4.424  1.00  0.00     0.088 C 
ENDROOT
BRANCH   1   3
HETATM    3  C   UNL     1     -21.886  -6.970  -2.008  1.00  0.00     0.283 C 
HETATM    4  O   UNL     1     -22.565  -5.970  -1.958  1.00  0.00    -0.260 OA
BRANCH   3   5
HETATM    5  O   UNL     1     -21.227  -7.546  -0.957  1.00  0.00    -0.318 OA
BRANCH   5   6
HETATM    6  C   UNL     1     -22.047  -7.844   0.189  1.00  0.00     0.179 C 
BRANCH   6   7
HETATM    7  C   UNL     1     -23.015  -9.008  -0.035  1.00  0.00     0.027 C 
BRANCH   7   8
HETATM    8  C   UNL     1     -22.286 -10.365  -0.032  1.00  0.00     0.002 C 
BRANCH   8   9
HETATM    9  C   UNL     1     -20.975 -10.317   0.763  1.00  0.00     0.000 C 
BRANCH   9  10
HETATM   10  C   UNL     1     -20.042 -11.475   0.392  1.00  0.00     0.000 C 
BRANCH  10  11
HETATM   11  C   UNL     1     -19.966 -11.663  -1.125  1.00  0.00    -0.000 C 
BRANCH  11  12
HETATM   12  C   UNL     1     -18.648 -11.133  -1.691  1.00  0.00    -0.005 C 
HETATM   13  C   UNL     1     -18.865  -9.852  -2.479  1.00  0.00     0.005 C 
ENDBRANCH  11  12
ENDBRANCH  10  11
ENDBRANCH   9  10
ENDBRANCH   8   9
ENDBRANCH   7   8
ENDBRANCH   6   7
ENDBRANCH   5   6
ENDBRANCH   3   5
ENDBRANCH   1   3
BRANCH   2  14
HETATM   14  C   UNL     1     -21.151  -7.768  -5.678  1.00  0.00     0.283 C 
HETATM   15  O   UNL     1     -21.066  -8.981  -5.820  1.00  0.00    -0.260 OA
BRANCH  14  16
HETATM   16  O   UNL     1     -20.826  -6.848  -6.633  1.00  0.00    -0.318 OA
BRANCH  16  17
HETATM   17  C   UNL     1     -20.183  -5.662  -6.130  1.00  0.00     0.179 C 
BRANCH  17  18
HETATM   18  C   UNL     1     -19.347  -4.922  -7.175  1.00  0.00     0.027 C 
BRANCH  18  19
HETATM   19  C   UNL     1     -20.226  -4.090  -8.129  1.00  0.00     0.002 C 
BRANCH  19  20
HETATM   20  C   UNL     1     -21.507  -3.593  -7.448  1.00  0.00     0.000 C 
BRANCH  20  21
HETATM   21  C   UNL     1     -22.765  -4.181  -8.098  1.00  0.00     0.000 C 
BRANCH  21  22
HETATM   22  C   UNL     1     -22.504  -4.577  -9.553  1.00  0.00    -0.000 C 
BRANCH  22  23
HETATM   23  C   UNL     1     -23.797  -4.603 -10.368  1.00  0.00    -0.005 C 
HETATM   24  C   UNL     1     -24.738  -3.489  -9.937  1.00  0.00     0.005 C 
ENDBRANCH  22  23
ENDBRANCH  21  22
ENDBRANCH  20  21
ENDBRANCH  19  20
ENDBRANCH  18  19
ENDBRANCH  17  18
ENDBRANCH  16  17
ENDBRANCH  14  16
ENDBRANCH   2  14
TORSDOF 18
BEGIN_RES ARG D 557
REMARK  4 active torsions:
REMARK  status: ('A' for Active; 'I' for Inactive)
REMARK    1  A    between atoms: CA   and  CB  
REMARK    2  A    between atoms: CB   and  CG  
REMARK    3  A    between atoms: CG   and  CD  
REMARK    4  A    between atoms: CD   and  NE  
REMARK       I    between atoms: NE   and  CZ  
REMARK       I    between atoms: CZ   and  NH1 
REMARK       I    between atoms: CZ   and  NH2 
ROOT
ATOM      1  CA  ARG D 557     -26.217   2.705 -17.014  1.00 35.49     0.159 C 
ENDROOT
BRANCH   1   2
ATOM      2  CB  ARG D 557     -26.789   1.319 -17.183  1.00 35.49     0.034 C 
BRANCH   2   3
ATOM      3  CG  ARG D 557     -25.935   0.197 -16.774  1.00 35.49     0.027 C 
BRANCH   3   4
ATOM      4  CD  ARG D 557     -26.689  -0.851 -16.049  1.00 35.49     0.116 C 
BRANCH   4   5
ATOM      5  NE  ARG D 557     -25.927  -1.417 -14.966  1.00 35.49    -0.212 N 
ATOM      6  CZ  ARG D 557     -25.898  -2.687 -14.630  1.00 35.49     0.666 C 
ATOM      7  NH1 ARG D 557     -26.601  -3.605 -15.266  1.00 35.49    -0.235 N 
ATOM      8  NH2 ARG D 557     -25.133  -3.026 -13.633  1.00 35.49    -0.235 N 
ATOM      9  HH  ARG D 557     -27.109  -3.405 -15.926  1.00 35.49     0.174 HD
ATOM     10  HH  ARG D 557     -26.539  -4.419 -15.004  1.00 35.49     0.174 HD
ATOM     11  HH  ARG D 557     -24.684  -2.412 -13.246  1.00 35.49     0.174 HD
ATOM     12  HH  ARG D 557     -25.084  -3.836 -13.390  1.00 35.49     0.174 HD
ATOM     13  HE  ARG D 557     -25.501  -0.885 -14.458  1.00 35.49     0.178 HD
ENDBRANCH   4   5
ENDBRANCH   3   4
ENDBRANCH   2   3
ENDBRANCH   1   2
END_RES ARG D 557
BEGIN_RES GLU D 570
REMARK  3 active torsions:
REMARK  status: ('A' for Active; 'I' for Inactive)
REMARK    5  A    between atoms: CA   and  CB  
REMARK    6  A    between atoms: CB   and  CG  
REMARK    7  A    between atoms: CG   and  CD  
ROOT
ATOM     14  CA  GLU D 570     -18.033  -6.348 -13.375  1.00 32.92     0.160 C 
ENDROOT
BRANCH  14  15
ATOM     15  CB  GLU D 570     -19.500  -6.345 -13.794  1.00 32.92     0.043 C 
BRANCH  15  16
ATOM     16  CG  GLU D 570     -20.439  -5.518 -12.993  1.00 32.92     0.100 C 
BRANCH  16  17
ATOM     17  CD  GLU D 570     -21.753  -5.270 -13.697  1.00 32.92     0.185 C 
ATOM     18  OE1 GLU D 570     -22.237  -6.170 -14.409  1.00 32.92    -0.647 OA
ATOM     19  OE2 GLU D 570     -22.296  -4.157 -13.546  1.00 32.92    -0.647 OA
ENDBRANCH  16  17
ENDBRANCH  15  16
ENDBRANCH  14  15
END_RES GLU D 570
ENDMDL
MODEL 7
REMARK VINA RESULT:      -6.5      4.158     10.083
REMARK  18 active torsions:
REMARK  status: ('A' for Active; 'I' for Inactive)
REMARK    1  A    between atoms: C_2  and  C_3 
REMARK    2  A    between atoms: C_3  and  C_4 
REMARK    3  A    between atoms: C_4  and  C_5 
REMARK    4  A    between atoms: C_5  and  C_6 
REMARK    5  A    between atoms: C_6  and  C_7 
REMARK    6  A    between atoms: C_7  and  C_8 
REMARK    7  A    between atoms: C_8  and  O_9 
REMARK    8  A    between atoms: O_9  and  C_10 
REMARK    9  A    between atoms: C_10  and  C_12 
REMARK   10  A    between atoms: C_13  and  C_14 
REMARK   11  A    between atoms: C_14  and  O_16 
REMARK   12  A    between atoms: O_16  and  C_17 
REMARK   13  A    between atoms: C_17  and  C_18 
REMARK   14  A    between atoms: C_18  and  C_19 
REMARK   15  A    between atoms: C_19  and  C_20 
REMARK   16  A    between atoms: C_20  and  C_21 
REMARK   17  A    between atoms: C_21  and  C_22 
REMARK   18  A    between atoms: C_22  and  C_23 
ROOT
HETATM    1  C   UNL     1     -21.654  -6.753  -4.136  1.00  0.00     0.088 C 
HETATM    2  C   UNL     1     -21.069  -5.787  -4.852  1.00  0.00     0.088 C 
ENDROOT
BRANCH   1   3
HETATM    3  C   UNL     1     -21.706  -6.652  -2.656  1.00  0.00     0.283 C 
HETATM    4  O   UNL     1     -22.357  -5.845  -2.031  1.00  0.00    -0.260 OA
BRANCH   3   5
HETATM    5  O   UNL     1     -20.817  -7.547  -2.128  1.00  0.00    -0.318 OA
BRANCH   5   6
HETATM    6  C   UNL     1     -20.897  -8.881  -2.667  1.00  0.00     0.179 C 
BRANCH   6   7
HETATM    7  C   UNL     1     -22.109  -9.671  -2.170  1.00  0.00     0.027 C 
BRANCH   7   8
HETATM    8  C   UNL     1     -22.393  -9.404  -0.680  1.00  0.00     0.002 C 
BRANCH   8   9
HETATM    9  C   UNL     1     -23.533 -10.278  -0.141  1.00  0.00     0.000 C 
BRANCH   9  10
HETATM   10  C   UNL     1     -23.933 -11.371  -1.140  1.00  0.00     0.000 C 
BRANCH  10  11
HETATM   11  C   UNL     1     -23.827 -12.762  -0.512  1.00  0.00    -0.000 C 
BRANCH  11  12
HETATM   12  C   UNL     1     -23.275 -12.697   0.912  1.00  0.00    -0.005 C 
HETATM   13  C   UNL     1     -21.920 -13.379   1.006  1.00  0.00     0.005 C 
ENDBRANCH  11  12
ENDBRANCH  10  11
ENDBRANCH   9  10
ENDBRANCH   8   9
ENDBRANCH   7   8
ENDBRANCH   6   7
ENDBRANCH   5   6
ENDBRANCH   3   5
ENDBRANCH   1   3
BRANCH   2  14
HETATM   14  C   UNL     1     -20.973  -5.864  -6.329  1.00  0.00     0.283 C 
HETATM   15  O   UNL     1     -20.094  -6.444  -6.954  1.00  0.00    -0.260 OA
BRANCH  14  16
HETATM   16  O   UNL     1     -21.962  -5.112  -6.893  1.00  0.00    -0.318 OA
BRANCH  16  17
HETATM   17  C   UNL     1     -21.495  -4.028  -7.717  1.00  0.00     0.179 C 
BRANCH  17  18
HETATM   18  C   UNL     1     -21.837  -4.188  -9.200  1.00  0.00     0.027 C 
BRANCH  18  19
HETATM   19  C   UNL     1     -20.573  -4.336 -10.068  1.00  0.00     0.002 C 
BRANCH  19  20
HETATM   20  C   UNL     1     -20.781  -3.799 -11.489  1.00  0.00     0.000 C 
BRANCH  20  21
HETATM   21  C   UNL     1     -21.944  -2.803 -11.559  1.00  0.00     0.000 C 
BRANCH  21  22
HETATM   22  C   UNL     1     -22.958  -3.208 -12.632  1.00  0.00    -0.000 C 
BRANCH  22  23
HETATM   23  C   UNL     1     -22.427  -4.343 -13.506  1.00  0.00    -0.005 C 
HETATM   24  C   UNL     1     -23.415  -5.498 -13.565  1.00  0.00     0.005 C 
ENDBRANCH  22  23
ENDBRANCH  21  22
ENDBRANCH  20  21
ENDBRANCH  19  20
ENDBRANCH  18  19
ENDBRANCH  17  18
ENDBRANCH  16  17
ENDBRANCH  14  16
ENDBRANCH   2  14
TORSDOF 18
BEGIN_RES ARG D 557
REMARK  4 active torsions:
REMARK  status: ('A' for Active; 'I' for Inactive)
REMARK    1  A    between atoms: CA   and  CB  
REMARK    2  A    between atoms: CB   and  CG  
REMARK    3  A    between atoms: CG   and  CD  
REMARK    4  A    between atoms: CD   and  NE  
REMARK       I    between atoms: NE   and  CZ  
REMARK       I    between atoms: CZ   and  NH1 
REMARK       I    between atoms: CZ   and  NH2 
ROOT
ATOM      1  CA  ARG D 557     -26.217   2.705 -17.014  1.00 35.49     0.159 C 
ENDROOT
BRANCH   1   2
ATOM      2  CB  ARG D 557     -26.789   1.319 -17.183  1.00 35.49     0.034 C 
BRANCH   2   3
ATOM      3  CG  ARG D 557     -28.226   1.161 -16.927  1.00 35.49     0.027 C 
BRANCH   3   4
ATOM      4  CD  ARG D 557     -28.605  -0.250 -16.686  1.00 35.49     0.116 C 
BRANCH   4   5
ATOM      5  NE  ARG D 557     -27.586  -0.969 -15.966  1.00 35.49    -0.212 N 
ATOM      6  CZ  ARG D 557     -27.367  -2.263 -16.034  1.00 35.49     0.666 C 
ATOM      7  NH1 ARG D 557     -28.095  -3.067 -16.787  1.00 35.49    -0.235 N 
ATOM      8  NH2 ARG D 557     -26.385  -2.744 -15.328  1.00 35.49    -0.235 N 
ATOM      9  HH  ARG D 557     -28.745  -2.772 -17.261  1.00 35.49     0.174 HD
ATOM     10  HH  ARG D 557     -27.904  -3.903 -16.793  1.00 35.49     0.174 HD
ATOM     11  HH  ARG D 557     -25.927  -2.199 -14.857  1.00 35.49     0.174 HD
ATOM     12  HH  ARG D 557     -26.211  -3.573 -15.349  1.00 35.49     0.174 HD
ATOM     13  HE  ARG D 557     -27.117  -0.540 -15.402  1.00 35.49     0.178 HD
ENDBRANCH   4   5
ENDBRANCH   3   4
ENDBRANCH   2   3
ENDBRANCH   1   2
END_RES ARG D 557
BEGIN_RES GLU D 570
REMARK  3 active torsions:
REMARK  status: ('A' for Active; 'I' for Inactive)
REMARK    5  A    between atoms: CA   and  CB  
REMARK    6  A    between atoms: CB   and  CG  
REMARK    7  A    between atoms: CG   and  CD  
ROOT
ATOM     14  CA  GLU D 570     -18.033  -6.348 -13.375  1.00 32.92     0.160 C 
ENDROOT
BRANCH  14  15
ATOM     15  CB  GLU D 570     -19.500  -6.345 -13.794  1.00 32.92     0.043 C 
BRANCH  15  16
ATOM     16  CG  GLU D 570     -20.093  -7.639 -14.220  1.00 32.92     0.100 C 
BRANCH  16  17
ATOM     17  CD  GLU D 570     -20.635  -7.603 -15.630  1.00 32.92     0.185 C 
ATOM     18  OE1 GLU D 570     -20.931  -6.504 -16.137  1.00 32.92    -0.647 OA
ATOM     19  OE2 GLU D 570     -20.781  -8.688 -16.228  1.00 32.92    -0.647 OA
ENDBRANCH  16  17
ENDBRANCH  15  16
ENDBRANCH  14  15
END_RES GLU D 570
ENDMDL
MODEL 8
REMARK VINA RESULT:      -6.5      1.975      9.166
REMARK  18 active torsions:
REMARK  status: ('A' for Active; 'I' for Inactive)
REMARK    1  A    between atoms: C_2  and  C_3 
REMARK    2  A    between atoms: C_3  and  C_4 
REMARK    3  A    between atoms: C_4  and  C_5 
REMARK    4  A    between atoms: C_5  and  C_6 
REMARK    5  A    between atoms: C_6  and  C_7 
REMARK    6  A    between atoms: C_7  and  C_8 
REMARK    7  A    between atoms: C_8  and  O_9 
REMARK    8  A    between atoms: O_9  and  C_10 
REMARK    9  A    between atoms: C_10  and  C_12 
REMARK   10  A    between atoms: C_13  and  C_14 
REMARK   11  A    between atoms: C_14  and  O_16 
REMARK   12  A    between atoms: O_16  and  C_17 
REMARK   13  A    between atoms: C_17  and  C_18 
REMARK   14  A    between atoms: C_18  and  C_19 
REMARK   15  A    between atoms: C_19  and  C_20 
REMARK   16  A    between atoms: C_20  and  C_21 
REMARK   17  A    between atoms: C_21  and  C_22 
REMARK   18  A    between atoms: C_22  and  C_23 
ROOT
HETATM    1  C   UNL     1     -22.498  -3.770  -8.798  1.00  0.00     0.088 C 
HETATM    2  C   UNL     1     -23.062  -4.114  -9.961  1.00  0.00     0.088 C 
ENDROOT
BRANCH   1   3
HETATM    3  C   UNL     1     -21.434  -4.620  -8.209  1.00  0.00     0.283 C 
HETATM    4  O   UNL     1     -20.422  -4.969  -8.774  1.00  0.00    -0.260 OA
BRANCH   3   5
HETATM    5  O   UNL     1     -21.840  -5.029  -6.968  1.00  0.00    -0.318 OA
BRANCH   5   6
HETATM    6  C   UNL     1     -20.811  -5.042  -5.960  1.00  0.00     0.179 C 
BRANCH   6   7
HETATM    7  C   UNL     1     -20.730  -6.358  -5.185  1.00  0.00     0.027 C 
BRANCH   7   8
HETATM    8  C   UNL     1     -21.936  -6.542  -4.244  1.00  0.00     0.002 C 
BRANCH   8   9
HETATM    9  C   UNL     1     -21.554  -6.362  -2.770  1.00  0.00     0.000 C 
BRANCH   9  10
HETATM   10  C   UNL     1     -20.728  -7.544  -2.248  1.00  0.00     0.000 C 
BRANCH  10  11
HETATM   11  C   UNL     1     -21.517  -8.362  -1.223  1.00  0.00    -0.000 C 
BRANCH  11  12
HETATM   12  C   UNL     1     -22.480  -7.484  -0.423  1.00  0.00    -0.005 C 
HETATM   13  C   UNL     1     -22.639  -7.998   0.999  1.00  0.00     0.005 C 
ENDBRANCH  11  12
ENDBRANCH  10  11
ENDBRANCH   9  10
ENDBRANCH   8   9
ENDBRANCH   7   8
ENDBRANCH   6   7
ENDBRANCH   5   6
ENDBRANCH   3   5
ENDBRANCH   1   3
BRANCH   2  14
HETATM   14  C   UNL     1     -24.146  -3.306 -10.567  1.00  0.00     0.283 C 
HETATM   15  O   UNL     1     -25.303  -3.255 -10.169  1.00  0.00    -0.260 OA
BRANCH  14  16
HETATM   16  O   UNL     1     -23.685  -2.696 -11.698  1.00  0.00    -0.318 OA
BRANCH  16  17
HETATM   17  C   UNL     1     -24.187  -3.253 -12.927  1.00  0.00     0.179 C 
BRANCH  17  18
HETATM   18  C   UNL     1     -23.206  -4.199 -13.622  1.00  0.00     0.027 C 
BRANCH  18  19
HETATM   19  C   UNL     1     -23.749  -5.639 -13.690  1.00  0.00     0.002 C 
BRANCH  19  20
HETATM   20  C   UNL     1     -23.518  -6.280 -15.064  1.00  0.00     0.000 C 
BRANCH  20  21
HETATM   21  C   UNL     1     -24.782  -6.966 -15.594  1.00  0.00     0.000 C 
BRANCH  21  22
HETATM   22  C   UNL     1     -25.865  -5.942 -15.942  1.00  0.00    -0.000 C 
BRANCH  22  23
HETATM   23  C   UNL     1     -27.113  -6.616 -16.510  1.00  0.00    -0.005 C 
HETATM   24  C   UNL     1     -27.892  -7.336 -15.420  1.00  0.00     0.005 C 
ENDBRANCH  22  23
ENDBRANCH  21  22
ENDBRANCH  20  21
ENDBRANCH  19  20
ENDBRANCH  18  19
ENDBRANCH  17  18
ENDBRANCH  16  17
ENDBRANCH  14  16
ENDBRANCH   2  14
TORSDOF 18
BEGIN_RES ARG D 557
REMARK  4 active torsions:
REMARK  status: ('A' for Active; 'I' for Inactive)
REMARK    1  A    between atoms: CA   and  CB  
REMARK    2  A    between atoms: CB   and  CG  
REMARK    3  A    between atoms: CG   and  CD  
REMARK    4  A    between atoms: CD   and  NE  
REMARK       I    between atoms: NE   and  CZ  
REMARK       I    between atoms: CZ   and  NH1 
REMARK       I    between atoms: CZ   and  NH2 
ROOT
ATOM      1  CA  ARG D 557     -26.217   2.705 -17.014  1.00 35.49     0.159 C 
ENDROOT
BRANCH   1   2
ATOM      2  CB  ARG D 557     -26.789   1.319 -17.183  1.00 35.49     0.034 C 
BRANCH   2   3
ATOM      3  CG  ARG D 557     -28.134   1.089 -16.642  1.00 35.49     0.027 C 
BRANCH   3   4
ATOM      4  CD  ARG D 557     -28.849   0.002 -17.350  1.00 35.49     0.116 C 
BRANCH   4   5
ATOM      5  NE  ARG D 557     -28.321  -1.296 -17.024  1.00 35.49    -0.212 N 
ATOM      6  CZ  ARG D 557     -28.967  -2.436 -17.130  1.00 35.49     0.666 C 
ATOM      7  NH1 ARG D 557     -30.217  -2.507 -17.548  1.00 35.49    -0.235 N 
ATOM      8  NH2 ARG D 557     -28.325  -3.522 -16.809  1.00 35.49    -0.235 N 
ATOM      9  HH  ARG D 557     -30.658  -1.806 -17.767  1.00 35.49     0.174 HD
ATOM     10  HH  ARG D 557     -30.586  -3.279 -17.600  1.00 35.49     0.174 HD
ATOM     11  HH  ARG D 557     -27.516  -3.446 -16.549  1.00 35.49     0.174 HD
ATOM     12  HH  ARG D 557     -28.707  -4.277 -16.868  1.00 35.49     0.174 HD
ATOM     13  HE  ARG D 557     -27.546  -1.337 -16.677  1.00 35.49     0.178 HD
ENDBRANCH   4   5
ENDBRANCH   3   4
ENDBRANCH   2   3
ENDBRANCH   1   2
END_RES ARG D 557
BEGIN_RES GLU D 570
REMARK  3 active torsions:
REMARK  status: ('A' for Active; 'I' for Inactive)
REMARK    5  A    between atoms: CA   and  CB  
REMARK    6  A    between atoms: CB   and  CG  
REMARK    7  A    between atoms: CG   and  CD  
ROOT
ATOM     14  CA  GLU D 570     -18.033  -6.348 -13.375  1.00 32.92     0.160 C 
ENDROOT
BRANCH  14  15
ATOM     15  CB  GLU D 570     -19.500  -6.345 -13.794  1.00 32.92     0.043 C 
BRANCH  15  16
ATOM     16  CG  GLU D 570     -20.087  -7.635 -14.239  1.00 32.92     0.100 C 
BRANCH  16  17
ATOM     17  CD  GLU D 570     -20.536  -7.612 -15.682  1.00 32.92     0.185 C 
ATOM     18  OE1 GLU D 570     -21.072  -8.627 -16.165  1.00 32.92    -0.647 OA
ATOM     19  OE2 GLU D 570     -20.333  -6.573 -16.340  1.00 32.92    -0.647 OA
ENDBRANCH  16  17
ENDBRANCH  15  16
ENDBRANCH  14  15
END_RES GLU D 570
ENDMDL
MODEL 9
REMARK VINA RESULT:      -6.5      6.075      9.904
REMARK  18 active torsions:
REMARK  status: ('A' for Active; 'I' for Inactive)
REMARK    1  A    between atoms: C_2  and  C_3 
REMARK    2  A    between atoms: C_3  and  C_4 
REMARK    3  A    between atoms: C_4  and  C_5 
REMARK    4  A    between atoms: C_5  and  C_6 
REMARK    5  A    between atoms: C_6  and  C_7 
REMARK    6  A    between atoms: C_7  and  C_8 
REMARK    7  A    between atoms: C_8  and  O_9 
REMARK    8  A    between atoms: O_9  and  C_10 
REMARK    9  A    between atoms: C_10  and  C_12 
REMARK   10  A    between atoms: C_13  and  C_14 
REMARK   11  A    between atoms: C_14  and  O_16 
REMARK   12  A    between atoms: O_16  and  C_17 
REMARK   13  A    between atoms: C_17  and  C_18 
REMARK   14  A    between atoms: C_18  and  C_19 
REMARK   15  A    between atoms: C_19  and  C_20 
REMARK   16  A    between atoms: C_20  and  C_21 
REMARK   17  A    between atoms: C_21  and  C_22 
REMARK   18  A    between atoms: C_22  and  C_23 
ROOT
HETATM    1  C   UNL     1     -21.142  -7.683  -1.528  1.00  0.00     0.088 C 
HETATM    2  C   UNL     1     -21.942  -7.841  -0.468  1.00  0.00     0.088 C 
ENDROOT
BRANCH   1   3
HETATM    3  C   UNL     1     -21.537  -6.764  -2.625  1.00  0.00     0.283 C 
HETATM    4  O   UNL     1     -22.322  -5.848  -2.524  1.00  0.00    -0.260 OA
BRANCH   3   5
HETATM    5  O   UNL     1     -20.950  -7.192  -3.783  1.00  0.00    -0.318 OA
BRANCH   5   6
HETATM    6  C   UNL     1     -21.591  -6.749  -4.995  1.00  0.00     0.179 C 
BRANCH   6   7
HETATM    7  C   UNL     1     -20.612  -6.256  -6.062  1.00  0.00     0.027 C 
BRANCH   7   8
HETATM    8  C   UNL     1     -20.456  -4.724  -6.030  1.00  0.00     0.002 C 
BRANCH   8   9
HETATM    9  C   UNL     1     -20.391  -4.118  -7.437  1.00  0.00     0.000 C 
BRANCH   9  10
HETATM   10  C   UNL     1     -21.776  -4.052  -8.092  1.00  0.00     0.000 C 
BRANCH  10  11
HETATM   11  C   UNL     1     -21.675  -4.171  -9.615  1.00  0.00    -0.000 C 
BRANCH  11  12
HETATM   12  C   UNL     1     -23.057  -4.221 -10.268  1.00  0.00    -0.005 C 
HETATM   13  C   UNL     1     -24.104  -3.556  -9.388  1.00  0.00     0.005 C 
ENDBRANCH  11  12
ENDBRANCH  10  11
ENDBRANCH   9  10
ENDBRANCH   8   9
ENDBRANCH   7   8
ENDBRANCH   6   7
ENDBRANCH   5   6
ENDBRANCH   3   5
ENDBRANCH   1   3
BRANCH   2  14
HETATM   14  C   UNL     1     -21.596  -8.769   0.634  1.00  0.00     0.283 C 
HETATM   15  O   UNL     1     -20.964  -8.473   1.640  1.00  0.00    -0.260 OA
BRANCH  14  16
HETATM   16  O   UNL     1     -22.009 -10.031   0.317  1.00  0.00    -0.318 OA
BRANCH  16  17
HETATM   17  C   UNL     1     -23.327 -10.105  -0.256  1.00  0.00     0.179 C 
BRANCH  17  18
HETATM   18  C   UNL     1     -23.458 -11.143  -1.372  1.00  0.00     0.027 C 
BRANCH  18  19
HETATM   19  C   UNL     1     -24.121 -12.441  -0.874  1.00  0.00     0.002 C 
BRANCH  19  20
HETATM   20  C   UNL     1     -23.132 -13.345  -0.126  1.00  0.00     0.000 C 
BRANCH  20  21
HETATM   21  C   UNL     1     -23.404 -13.365   1.382  1.00  0.00     0.000 C 
BRANCH  21  22
HETATM   22  C   UNL     1     -22.214 -13.941   2.153  1.00  0.00    -0.000 C 
BRANCH  22  23
HETATM   23  C   UNL     1     -22.668 -14.903   3.250  1.00  0.00    -0.005 C 
HETATM   24  C   UNL     1     -24.179 -14.873   3.414  1.00  0.00     0.005 C 
ENDBRANCH  22  23
ENDBRANCH  21  22
ENDBRANCH  20  21
ENDBRANCH  19  20
ENDBRANCH  18  19
ENDBRANCH  17  18
ENDBRANCH  16  17
ENDBRANCH  14  16
ENDBRANCH   2  14
TORSDOF 18
BEGIN_RES ARG D 557
REMARK  4 active torsions:
REMARK  status: ('A' for Active; 'I' for Inactive)
REMARK    1  A    between atoms: CA   and  CB  
REMARK    2  A    between atoms: CB   and  CG  
REMARK    3  A    between atoms: CG   and  CD  
REMARK    4  A    between atoms: CD   and  NE  
REMARK       I    between atoms: NE   and  CZ  
REMARK       I    between atoms: CZ   and  NH1 
REMARK       I    between atoms: CZ   and  NH2 
ROOT
ATOM      1  CA  ARG D 557     -26.217   2.705 -17.014  1.00 35.49     0.159 C 
ENDROOT
BRANCH   1   2
ATOM      2  CB  ARG D 557     -26.789   1.319 -17.183  1.00 35.49     0.034 C 
BRANCH   2   3
ATOM      3  CG  ARG D 557     -25.875   0.194 -16.952  1.00 35.49     0.027 C 
BRANCH   3   4
ATOM      4  CD  ARG D 557     -26.386  -0.748 -15.930  1.00 35.49     0.116 C 
BRANCH   4   5
ATOM      5  NE  ARG D 557     -25.435  -0.968 -14.872  1.00 35.49    -0.212 N 
ATOM      6  CZ  ARG D 557     -25.165  -2.126 -14.311  1.00 35.49     0.666 C 
ATOM      7  NH1 ARG D 557     -25.771  -3.244 -14.665  1.00 35.49    -0.235 N 
ATOM      8  NH2 ARG D 557     -24.257  -2.144 -13.379  1.00 35.49    -0.235 N 
ATOM      9  HH  ARG D 557     -26.370  -3.256 -15.277  1.00 35.49     0.174 HD
ATOM     10  HH  ARG D 557     -25.552  -3.970 -14.266  1.00 35.49     0.174 HD
ATOM     11  HH  ARG D 557     -23.877  -1.407 -13.176  1.00 35.49     0.174 HD
ATOM     12  HH  ARG D 557     -24.053  -2.872 -12.997  1.00 35.49     0.174 HD
ATOM     13  HE  ARG D 557     -25.051  -0.290 -14.533  1.00 35.49     0.178 HD
ENDBRANCH   4   5
ENDBRANCH   3   4
ENDBRANCH   2   3
ENDBRANCH   1   2
END_RES ARG D 557
BEGIN_RES GLU D 570
REMARK  3 active torsions:
REMARK  status: ('A' for Active; 'I' for Inactive)
REMARK    5  A    between atoms: CA   and  CB  
REMARK    6  A    between atoms: CB   and  CG  
REMARK    7  A    between atoms: CG   and  CD  
ROOT
ATOM     14  CA  GLU D 570     -18.033  -6.348 -13.375  1.00 32.92     0.160 C 
ENDROOT
BRANCH  14  15
ATOM     15  CB  GLU D 570     -19.500  -6.345 -13.794  1.00 32.92     0.043 C 
BRANCH  15  16
ATOM     16  CG  GLU D 570     -20.430  -5.478 -13.025  1.00 32.92     0.100 C 
BRANCH  16  17
ATOM     17  CD  GLU D 570     -21.740  -5.240 -13.739  1.00 32.92     0.185 C 
ATOM     18  OE1 GLU D 570     -22.246  -6.167 -14.400  1.00 32.92    -0.647 OA
ATOM     19  OE2 GLU D 570     -22.257  -4.109 -13.650  1.00 32.92    -0.647 OA
ENDBRANCH  16  17
ENDBRANCH  15  16
ENDBRANCH  14  15
END_RES GLU D 570
ENDMDL
