MODEL 1
REMARK VINA RESULT:      -7.3      0.000      0.000
REMARK  20 active torsions:
REMARK  status: ('A' for Active; 'I' for Inactive)
REMARK    1  A    between atoms: C_2  and  C_3 
REMARK    2  A    between atoms: C_3  and  C_4 
REMARK    3  A    between atoms: C_4  and  C_5 
REMARK    4  A    between atoms: C_5  and  C_6 
REMARK    5  A    between atoms: C_6  and  C_7 
REMARK    6  A    between atoms: C_7  and  C_8 
REMARK    7  A    between atoms: C_8  and  C_9 
REMARK    8  A    between atoms: C_9  and  C_10 
REMARK    9  A    between atoms: C_10  and  C_11 
REMARK   10  A    between atoms: C_11  and  C_12 
REMARK   11  A    between atoms: C_12  and  C_13 
REMARK   12  A    between atoms: C_13  and  C_14 
REMARK   13  A    between atoms: C_14  and  C_15 
REMARK   14  A    between atoms: C_15  and  C_16 
REMARK   15  A    between atoms: C_16  and  C_17 
REMARK   16  A    between atoms: C_17  and  C_18 
REMARK   17  A    between atoms: C_18  and  O_20 
REMARK   18  A    between atoms: O_20  and  C_21 
REMARK   19  A    between atoms: C_21  and  C_22 
REMARK   20  A    between atoms: C_22  and  C_23 
ROOT
HETATM    1  C   UNL     1     -20.359  -4.148  -9.680  1.00  0.00     0.000 C 
ENDROOT
BRANCH   1   2
HETATM    2  C   UNL     1     -21.583  -4.287  -8.790  1.00  0.00     0.000 C 
BRANCH   2   3
HETATM    3  C   UNL     1     -21.294  -3.718  -7.411  1.00  0.00     0.000 C 
BRANCH   3   4
HETATM    4  C   UNL     1     -20.134  -4.464  -6.775  1.00  0.00     0.000 C 
BRANCH   4   5
HETATM    5  C   UNL     1     -20.619  -5.254  -5.575  1.00  0.00     0.000 C 
BRANCH   5   6
HETATM    6  C   UNL     1     -20.604  -6.740  -5.890  1.00  0.00     0.000 C 
BRANCH   6   7
HETATM    7  C   UNL     1     -21.322  -7.511  -4.796  1.00  0.00     0.000 C 
BRANCH   7   8
HETATM    8  C   UNL     1     -21.836  -6.554  -3.734  1.00  0.00     0.000 C 
BRANCH   8   9
HETATM    9  C   UNL     1     -21.218  -6.890  -2.386  1.00  0.00     0.000 C 
BRANCH   9  10
HETATM   10  C   UNL     1     -22.257  -6.755  -1.283  1.00  0.00    -0.000 C 
BRANCH  10  11
HETATM   11  C   UNL     1     -21.986  -7.753  -0.165  1.00  0.00    -0.005 C 
HETATM   12  C   UNL     1     -23.261  -8.054   0.600  1.00  0.00     0.005 C 
ENDBRANCH  10  11
ENDBRANCH   9  10
ENDBRANCH   8   9
ENDBRANCH   7   8
ENDBRANCH   6   7
ENDBRANCH   5   6
ENDBRANCH   4   5
ENDBRANCH   3   4
ENDBRANCH   2   3
ENDBRANCH   1   2
BRANCH   1  13
HETATM   13  C   UNL     1     -20.772  -4.164 -11.144  1.00  0.00     0.000 C 
BRANCH  13  14
HETATM   14  C   UNL     1     -22.218  -3.714 -11.292  1.00  0.00     0.000 C 
BRANCH  14  15
HETATM   15  C   UNL     1     -23.086  -4.851 -11.824  1.00  0.00     0.000 C 
BRANCH  15  16
HETATM   16  C   UNL     1     -22.896  -4.997 -13.328  1.00  0.00     0.010 C 
BRANCH  16  17
HETATM   17  C   UNL     1     -23.658  -6.189 -13.899  1.00  0.00     0.111 C 
BRANCH  17  18
HETATM   18  C   UNL     1     -24.274  -5.821 -15.233  1.00  0.00     0.258 C 
HETATM   19  O   UNL     1     -23.963  -6.297 -16.306  1.00  0.00    -0.265 OA
BRANCH  18  20
HETATM   20  O   UNL     1     -25.184  -4.819 -15.057  1.00  0.00    -0.321 OA
BRANCH  20  21
HETATM   21  C   UNL     1     -26.429  -5.064 -15.728  1.00  0.00     0.178 C 
BRANCH  21  22
HETATM   22  C   UNL     1     -27.178  -3.764 -15.993  1.00  0.00     0.026 C 
BRANCH  22  23
HETATM   23  C   UNL     1     -28.492  -4.020 -16.731  1.00  0.00    -0.002 C 
HETATM   24  C   UNL     1     -28.353  -5.154 -17.734  1.00  0.00     0.005 C 
ENDBRANCH  22  23
ENDBRANCH  21  22
ENDBRANCH  20  21
ENDBRANCH  18  20
ENDBRANCH  17  18
ENDBRANCH  16  17
ENDBRANCH  15  16
ENDBRANCH  14  15
ENDBRANCH  13  14
ENDBRANCH   1  13
TORSDOF 20
BEGIN_RES ARG D 557
REMARK  4 active torsions:
REMARK  status: ('A' for Active; 'I' for Inactive)
REMARK    1  A    between atoms: CA   and  CB  
REMARK    2  A    between atoms: CB   and  CG  
REMARK    3  A    between atoms: CG   and  CD  
REMARK    4  A    between atoms: CD   and  NE  
REMARK       I    between atoms: NE   and  CZ  
REMARK       I    between atoms: CZ   and  NH1 
REMARK       I    between atoms: CZ   and  NH2 
ROOT
ATOM      1  CA  ARG D 557     -26.217   2.705 -17.014  1.00 35.49     0.159 C 
ENDROOT
BRANCH   1   2
ATOM      2  CB  ARG D 557     -26.789   1.319 -17.183  1.00 35.49     0.034 C 
BRANCH   2   3
ATOM      3  CG  ARG D 557     -25.832   0.206 -17.194  1.00 35.49     0.027 C 
BRANCH   3   4
ATOM      4  CD  ARG D 557     -24.772   0.363 -16.172  1.00 35.49     0.116 C 
BRANCH   4   5
ATOM      5  NE  ARG D 557     -24.989  -0.486 -15.031  1.00 35.49    -0.212 N 
ATOM      6  CZ  ARG D 557     -24.206  -1.468 -14.643  1.00 35.49     0.666 C 
ATOM      7  NH1 ARG D 557     -23.106  -1.797 -15.295  1.00 35.49    -0.235 N 
ATOM      8  NH2 ARG D 557     -24.547  -2.120 -13.570  1.00 35.49    -0.235 N 
ATOM      9  HH  ARG D 557     -22.861  -1.379 -16.003  1.00 35.49     0.174 HD
ATOM     10  HH  ARG D 557     -22.633  -2.444 -14.994  1.00 35.49     0.174 HD
ATOM     11  HH  ARG D 557     -25.259  -1.881 -13.166  1.00 35.49     0.174 HD
ATOM     12  HH  ARG D 557     -24.065  -2.757 -13.287  1.00 35.49     0.174 HD
ATOM     13  HE  ARG D 557     -25.713  -0.391 -14.594  1.00 35.49     0.178 HD
ENDBRANCH   4   5
ENDBRANCH   3   4
ENDBRANCH   2   3
ENDBRANCH   1   2
END_RES ARG D 557
BEGIN_RES GLU D 570
REMARK  3 active torsions:
REMARK  status: ('A' for Active; 'I' for Inactive)
REMARK    5  A    between atoms: CA   and  CB  
REMARK    6  A    between atoms: CB   and  CG  
REMARK    7  A    between atoms: CG   and  CD  
ROOT
ATOM     14  CA  GLU D 570     -18.033  -6.348 -13.375  1.00 32.92     0.160 C 
ENDROOT
BRANCH  14  15
ATOM     15  CB  GLU D 570     -19.500  -6.345 -13.794  1.00 32.92     0.043 C 
BRANCH  15  16
ATOM     16  CG  GLU D 570     -20.076  -7.626 -14.280  1.00 32.92     0.100 C 
BRANCH  16  17
ATOM     17  CD  GLU D 570     -20.701  -7.508 -15.650  1.00 32.92     0.185 C 
ATOM     18  OE1 GLU D 570     -21.385  -8.454 -16.086  1.00 32.92    -0.647 OA
ATOM     19  OE2 GLU D 570     -20.492  -6.466 -16.301  1.00 32.92    -0.647 OA
ENDBRANCH  16  17
ENDBRANCH  15  16
ENDBRANCH  14  15
END_RES GLU D 570
ENDMDL
MODEL 2
REMARK VINA RESULT:      -7.2      2.507      5.104
REMARK  20 active torsions:
REMARK  status: ('A' for Active; 'I' for Inactive)
REMARK    1  A    between atoms: C_2  and  C_3 
REMARK    2  A    between atoms: C_3  and  C_4 
REMARK    3  A    between atoms: C_4  and  C_5 
REMARK    4  A    between atoms: C_5  and  C_6 
REMARK    5  A    between atoms: C_6  and  C_7 
REMARK    6  A    between atoms: C_7  and  C_8 
REMARK    7  A    between atoms: C_8  and  C_9 
REMARK    8  A    between atoms: C_9  and  C_10 
REMARK    9  A    between atoms: C_10  and  C_11 
REMARK   10  A    between atoms: C_11  and  C_12 
REMARK   11  A    between atoms: C_12  and  C_13 
REMARK   12  A    between atoms: C_13  and  C_14 
REMARK   13  A    between atoms: C_14  and  C_15 
REMARK   14  A    between atoms: C_15  and  C_16 
REMARK   15  A    between atoms: C_16  and  C_17 
REMARK   16  A    between atoms: C_17  and  C_18 
REMARK   17  A    between atoms: C_18  and  O_20 
REMARK   18  A    between atoms: O_20  and  C_21 
REMARK   19  A    between atoms: C_21  and  C_22 
REMARK   20  A    between atoms: C_22  and  C_23 
ROOT
HETATM    1  C   UNL     1     -21.811  -6.081  -5.570  1.00  0.00     0.000 C 
ENDROOT
BRANCH   1   2
HETATM    2  C   UNL     1     -21.594  -6.887  -4.299  1.00  0.00     0.000 C 
BRANCH   2   3
HETATM    3  C   UNL     1     -21.247  -5.962  -3.146  1.00  0.00     0.000 C 
BRANCH   3   4
HETATM    4  C   UNL     1     -22.180  -6.220  -1.975  1.00  0.00     0.000 C 
BRANCH   4   5
HETATM    5  C   UNL     1     -21.884  -7.577  -1.365  1.00  0.00     0.000 C 
BRANCH   5   6
HETATM    6  C   UNL     1     -22.203  -7.560   0.120  1.00  0.00     0.000 C 
BRANCH   6   7
HETATM    7  C   UNL     1     -23.248  -8.615   0.440  1.00  0.00     0.000 C 
BRANCH   7   8
HETATM    8  C   UNL     1     -22.924  -9.908  -0.289  1.00  0.00     0.000 C 
BRANCH   8   9
HETATM    9  C   UNL     1     -21.803 -10.644   0.429  1.00  0.00     0.000 C 
BRANCH   9  10
HETATM   10  C   UNL     1     -22.069 -12.142   0.423  1.00  0.00    -0.000 C 
BRANCH  10  11
HETATM   11  C   UNL     1     -23.565 -12.422   0.375  1.00  0.00    -0.005 C 
HETATM   12  C   UNL     1     -23.880 -13.448  -0.697  1.00  0.00     0.005 C 
ENDBRANCH  10  11
ENDBRANCH   9  10
ENDBRANCH   8   9
ENDBRANCH   7   8
ENDBRANCH   6   7
ENDBRANCH   5   6
ENDBRANCH   4   5
ENDBRANCH   3   4
ENDBRANCH   2   3
ENDBRANCH   1   2
BRANCH   1  13
HETATM   13  C   UNL     1     -20.713  -5.039  -5.721  1.00  0.00     0.000 C 
BRANCH  13  14
HETATM   14  C   UNL     1     -21.038  -4.087  -6.862  1.00  0.00     0.000 C 
BRANCH  14  15
HETATM   15  C   UNL     1     -21.791  -4.812  -7.974  1.00  0.00     0.000 C 
BRANCH  15  16
HETATM   16  C   UNL     1     -22.954  -3.959  -8.462  1.00  0.00     0.010 C 
BRANCH  16  17
HETATM   17  C   UNL     1     -23.851  -4.704  -9.447  1.00  0.00     0.111 C 
BRANCH  17  18
HETATM   18  C   UNL     1     -24.691  -3.718 -10.233  1.00  0.00     0.258 C 
HETATM   19  O   UNL     1     -25.500  -2.948  -9.757  1.00  0.00    -0.265 OA
BRANCH  18  20
HETATM   20  O   UNL     1     -24.452  -3.875 -11.568  1.00  0.00    -0.321 OA
BRANCH  20  21
HETATM   21  C   UNL     1     -23.672  -2.809 -12.130  1.00  0.00     0.178 C 
BRANCH  21  22
HETATM   22  C   UNL     1     -22.289  -3.296 -12.542  1.00  0.00     0.026 C 
BRANCH  22  23
HETATM   23  C   UNL     1     -21.238  -2.938 -11.492  1.00  0.00    -0.002 C 
HETATM   24  C   UNL     1     -20.376  -4.139 -11.137  1.00  0.00     0.005 C 
ENDBRANCH  22  23
ENDBRANCH  21  22
ENDBRANCH  20  21
ENDBRANCH  18  20
ENDBRANCH  17  18
ENDBRANCH  16  17
ENDBRANCH  15  16
ENDBRANCH  14  15
ENDBRANCH  13  14
ENDBRANCH   1  13
TORSDOF 20
BEGIN_RES ARG D 557
REMARK  4 active torsions:
REMARK  status: ('A' for Active; 'I' for Inactive)
REMARK    1  A    between atoms: CA   and  CB  
REMARK    2  A    between atoms: CB   and  CG  
REMARK    3  A    between atoms: CG   and  CD  
REMARK    4  A    between atoms: CD   and  NE  
REMARK       I    between atoms: NE   and  CZ  
REMARK       I    between atoms: CZ   and  NH1 
REMARK       I    between atoms: CZ   and  NH2 
ROOT
ATOM      1  CA  ARG D 557     -26.217   2.705 -17.014  1.00 35.49     0.159 C 
ENDROOT
BRANCH   1   2
ATOM      2  CB  ARG D 557     -26.789   1.319 -17.183  1.00 35.49     0.034 C 
BRANCH   2   3
ATOM      3  CG  ARG D 557     -28.226   1.161 -16.926  1.00 35.49     0.027 C 
BRANCH   3   4
ATOM      4  CD  ARG D 557     -28.611  -0.254 -16.726  1.00 35.49     0.116 C 
BRANCH   4   5
ATOM      5  NE  ARG D 557     -27.595  -1.000 -16.031  1.00 35.49    -0.212 N 
ATOM      6  CZ  ARG D 557     -27.422  -2.301 -16.089  1.00 35.49     0.666 C 
ATOM      7  NH1 ARG D 557     -28.201  -3.089 -16.807  1.00 35.49    -0.235 N 
ATOM      8  NH2 ARG D 557     -26.434  -2.807 -15.409  1.00 35.49    -0.235 N 
ATOM      9  HH  ARG D 557     -28.856  -2.778 -17.264  1.00 35.49     0.174 HD
ATOM     10  HH  ARG D 557     -28.039  -3.930 -16.809  1.00 35.49     0.174 HD
ATOM     11  HH  ARG D 557     -25.943  -2.273 -14.960  1.00 35.49     0.174 HD
ATOM     12  HH  ARG D 557     -26.289  -3.642 -15.425  1.00 35.49     0.174 HD
ATOM     13  HE  ARG D 557     -27.093  -0.580 -15.487  1.00 35.49     0.178 HD
ENDBRANCH   4   5
ENDBRANCH   3   4
ENDBRANCH   2   3
ENDBRANCH   1   2
END_RES ARG D 557
BEGIN_RES GLU D 570
REMARK  3 active torsions:
REMARK  status: ('A' for Active; 'I' for Inactive)
REMARK    5  A    between atoms: CA   and  CB  
REMARK    6  A    between atoms: CB   and  CG  
REMARK    7  A    between atoms: CG   and  CD  
ROOT
ATOM     14  CA  GLU D 570     -18.033  -6.348 -13.375  1.00 32.92     0.160 C 
ENDROOT
BRANCH  14  15
ATOM     15  CB  GLU D 570     -19.500  -6.345 -13.794  1.00 32.92     0.043 C 
BRANCH  15  16
ATOM     16  CG  GLU D 570     -19.803  -6.076 -15.223  1.00 32.92     0.100 C 
BRANCH  16  17
ATOM     17  CD  GLU D 570     -20.679  -7.136 -15.850  1.00 32.92     0.185 C 
ATOM     18  OE1 GLU D 570     -20.679  -8.285 -15.366  1.00 32.92    -0.647 OA
ATOM     19  OE2 GLU D 570     -21.359  -6.819 -16.845  1.00 32.92    -0.647 OA
ENDBRANCH  16  17
ENDBRANCH  15  16
ENDBRANCH  14  15
END_RES GLU D 570
ENDMDL
MODEL 3
REMARK VINA RESULT:      -7.0      2.490      4.680
REMARK  20 active torsions:
REMARK  status: ('A' for Active; 'I' for Inactive)
REMARK    1  A    between atoms: C_2  and  C_3 
REMARK    2  A    between atoms: C_3  and  C_4 
REMARK    3  A    between atoms: C_4  and  C_5 
REMARK    4  A    between atoms: C_5  and  C_6 
REMARK    5  A    between atoms: C_6  and  C_7 
REMARK    6  A    between atoms: C_7  and  C_8 
REMARK    7  A    between atoms: C_8  and  C_9 
REMARK    8  A    between atoms: C_9  and  C_10 
REMARK    9  A    between atoms: C_10  and  C_11 
REMARK   10  A    between atoms: C_11  and  C_12 
REMARK   11  A    between atoms: C_12  and  C_13 
REMARK   12  A    between atoms: C_13  and  C_14 
REMARK   13  A    between atoms: C_14  and  C_15 
REMARK   14  A    between atoms: C_15  and  C_16 
REMARK   15  A    between atoms: C_16  and  C_17 
REMARK   16  A    between atoms: C_17  and  C_18 
REMARK   17  A    between atoms: C_18  and  O_20 
REMARK   18  A    between atoms: O_20  and  C_21 
REMARK   19  A    between atoms: C_21  and  C_22 
REMARK   20  A    between atoms: C_22  and  C_23 
ROOT
HETATM    1  C   UNL     1     -21.644  -6.465  -5.716  1.00  0.00     0.000 C 
ENDROOT
BRANCH   1   2
HETATM    2  C   UNL     1     -20.985  -7.803  -5.422  1.00  0.00     0.000 C 
BRANCH   2   3
HETATM    3  C   UNL     1     -21.522  -8.376  -4.121  1.00  0.00     0.000 C 
BRANCH   3   4
HETATM    4  C   UNL     1     -20.372  -8.701  -3.184  1.00  0.00     0.000 C 
BRANCH   4   5
HETATM    5  C   UNL     1     -20.485  -7.876  -1.916  1.00  0.00     0.000 C 
BRANCH   5   6
HETATM    6  C   UNL     1     -21.638  -6.894  -2.035  1.00  0.00     0.000 C 
BRANCH   6   7
HETATM    7  C   UNL     1     -22.440  -6.875  -0.745  1.00  0.00     0.000 C 
BRANCH   7   8
HETATM    8  C   UNL     1     -22.104  -8.094   0.096  1.00  0.00     0.000 C 
BRANCH   8   9
HETATM    9  C   UNL     1     -23.286  -9.051   0.125  1.00  0.00     0.000 C 
BRANCH   9  10
HETATM   10  C   UNL     1     -22.812 -10.479  -0.099  1.00  0.00    -0.000 C 
BRANCH  10  11
HETATM   11  C   UNL     1     -23.736 -11.207  -1.066  1.00  0.00    -0.005 C 
HETATM   12  C   UNL     1     -23.146 -11.213  -2.463  1.00  0.00     0.005 C 
ENDBRANCH  10  11
ENDBRANCH   9  10
ENDBRANCH   8   9
ENDBRANCH   7   8
ENDBRANCH   6   7
ENDBRANCH   5   6
ENDBRANCH   4   5
ENDBRANCH   3   4
ENDBRANCH   2   3
ENDBRANCH   1   2
BRANCH   1  13
HETATM   13  C   UNL     1     -20.681  -5.329  -5.403  1.00  0.00     0.000 C 
BRANCH  13  14
HETATM   14  C   UNL     1     -20.675  -4.311  -6.533  1.00  0.00     0.000 C 
BRANCH  14  15
HETATM   15  C   UNL     1     -19.511  -4.569  -7.487  1.00  0.00     0.000 C 
BRANCH  15  16
HETATM   16  C   UNL     1     -20.029  -4.769  -8.905  1.00  0.00     0.010 C 
BRANCH  16  17
HETATM   17  C   UNL     1     -21.358  -4.060  -9.146  1.00  0.00     0.111 C 
BRANCH  17  18
HETATM   18  C   UNL     1     -21.559  -3.825 -10.629  1.00  0.00     0.258 C 
HETATM   19  O   UNL     1     -20.913  -3.057 -11.313  1.00  0.00    -0.265 OA
BRANCH  18  20
HETATM   20  O   UNL     1     -22.625  -4.556 -11.069  1.00  0.00    -0.321 OA
BRANCH  20  21
HETATM   21  C   UNL     1     -23.140  -4.100 -12.328  1.00  0.00     0.178 C 
BRANCH  21  22
HETATM   22  C   UNL     1     -24.282  -3.111 -12.131  1.00  0.00     0.026 C 
BRANCH  22  23
HETATM   23  C   UNL     1     -25.057  -2.890 -13.431  1.00  0.00    -0.002 C 
HETATM   24  C   UNL     1     -24.281  -2.011 -14.398  1.00  0.00     0.005 C 
ENDBRANCH  22  23
ENDBRANCH  21  22
ENDBRANCH  20  21
ENDBRANCH  18  20
ENDBRANCH  17  18
ENDBRANCH  16  17
ENDBRANCH  15  16
ENDBRANCH  14  15
ENDBRANCH  13  14
ENDBRANCH   1  13
TORSDOF 20
BEGIN_RES ARG D 557
REMARK  4 active torsions:
REMARK  status: ('A' for Active; 'I' for Inactive)
REMARK    1  A    between atoms: CA   and  CB  
REMARK    2  A    between atoms: CB   and  CG  
REMARK    3  A    between atoms: CG   and  CD  
REMARK    4  A    between atoms: CD   and  NE  
REMARK       I    between atoms: NE   and  CZ  
REMARK       I    between atoms: CZ   and  NH1 
REMARK       I    between atoms: CZ   and  NH2 
ROOT
ATOM      1  CA  ARG D 557     -26.217   2.705 -17.014  1.00 35.49     0.159 C 
ENDROOT
BRANCH   1   2
ATOM      2  CB  ARG D 557     -26.789   1.319 -17.183  1.00 35.49     0.034 C 
BRANCH   2   3
ATOM      3  CG  ARG D 557     -28.235   1.225 -17.416  1.00 35.49     0.027 C 
BRANCH   3   4
ATOM      4  CD  ARG D 557     -28.899   0.295 -16.474  1.00 35.49     0.116 C 
BRANCH   4   5
ATOM      5  NE  ARG D 557     -29.306  -0.927 -17.115  1.00 35.49    -0.212 N 
ATOM      6  CZ  ARG D 557     -28.686  -2.083 -17.029  1.00 35.49     0.666 C 
ATOM      7  NH1 ARG D 557     -27.577  -2.243 -16.331  1.00 35.49    -0.235 N 
ATOM      8  NH2 ARG D 557     -29.210  -3.094 -17.660  1.00 35.49    -0.235 N 
ATOM      9  HH  ARG D 557     -27.217  -1.592 -15.905  1.00 35.49     0.174 HD
ATOM     10  HH  ARG D 557     -27.219  -3.021 -16.309  1.00 35.49     0.174 HD
ATOM     11  HH  ARG D 557     -29.931  -2.963 -18.097  1.00 35.49     0.174 HD
ATOM     12  HH  ARG D 557     -28.841  -3.856 -17.625  1.00 35.49     0.174 HD
ATOM     13  HE  ARG D 557     -29.971  -0.899 -17.644  1.00 35.49     0.178 HD
ENDBRANCH   4   5
ENDBRANCH   3   4
ENDBRANCH   2   3
ENDBRANCH   1   2
END_RES ARG D 557
BEGIN_RES GLU D 570
REMARK  3 active torsions:
REMARK  status: ('A' for Active; 'I' for Inactive)
REMARK    5  A    between atoms: CA   and  CB  
REMARK    6  A    between atoms: CB   and  CG  
REMARK    7  A    between atoms: CG   and  CD  
ROOT
ATOM     14  CA  GLU D 570     -18.033  -6.348 -13.375  1.00 32.92     0.160 C 
ENDROOT
BRANCH  14  15
ATOM     15  CB  GLU D 570     -19.500  -6.345 -13.794  1.00 32.92     0.043 C 
BRANCH  15  16
ATOM     16  CG  GLU D 570     -20.113  -7.651 -14.150  1.00 32.92     0.100 C 
BRANCH  16  17
ATOM     17  CD  GLU D 570     -21.002  -7.572 -15.369  1.00 32.92     0.185 C 
ATOM     18  OE1 GLU D 570     -20.889  -8.438 -16.258  1.00 32.92    -0.647 OA
ATOM     19  OE2 GLU D 570     -21.808  -6.624 -15.444  1.00 32.92    -0.647 OA
ENDBRANCH  16  17
ENDBRANCH  15  16
ENDBRANCH  14  15
END_RES GLU D 570
ENDMDL
MODEL 4
REMARK VINA RESULT:      -7.0      1.802      2.235
REMARK  20 active torsions:
REMARK  status: ('A' for Active; 'I' for Inactive)
REMARK    1  A    between atoms: C_2  and  C_3 
REMARK    2  A    between atoms: C_3  and  C_4 
REMARK    3  A    between atoms: C_4  and  C_5 
REMARK    4  A    between atoms: C_5  and  C_6 
REMARK    5  A    between atoms: C_6  and  C_7 
REMARK    6  A    between atoms: C_7  and  C_8 
REMARK    7  A    between atoms: C_8  and  C_9 
REMARK    8  A    between atoms: C_9  and  C_10 
REMARK    9  A    between atoms: C_10  and  C_11 
REMARK   10  A    between atoms: C_11  and  C_12 
REMARK   11  A    between atoms: C_12  and  C_13 
REMARK   12  A    between atoms: C_13  and  C_14 
REMARK   13  A    between atoms: C_14  and  C_15 
REMARK   14  A    between atoms: C_15  and  C_16 
REMARK   15  A    between atoms: C_16  and  C_17 
REMARK   16  A    between atoms: C_17  and  C_18 
REMARK   17  A    between atoms: C_18  and  O_20 
REMARK   18  A    between atoms: O_20  and  C_21 
REMARK   19  A    between atoms: C_21  and  C_22 
REMARK   20  A    between atoms: C_22  and  C_23 
ROOT
HETATM    1  C   UNL     1     -21.269  -4.087  -9.511  1.00  0.00     0.000 C 
ENDROOT
BRANCH   1   2
HETATM    2  C   UNL     1     -21.101  -4.953  -8.273  1.00  0.00     0.000 C 
BRANCH   2   3
HETATM    3  C   UNL     1     -20.938  -4.078  -7.042  1.00  0.00     0.000 C 
BRANCH   3   4
HETATM    4  C   UNL     1     -20.265  -4.867  -5.931  1.00  0.00     0.000 C 
BRANCH   4   5
HETATM    5  C   UNL     1     -20.546  -6.348  -6.101  1.00  0.00     0.000 C 
BRANCH   5   6
HETATM    6  C   UNL     1     -20.595  -7.028  -4.743  1.00  0.00     0.000 C 
BRANCH   6   7
HETATM    7  C   UNL     1     -21.839  -6.593  -3.989  1.00  0.00     0.000 C 
BRANCH   7   8
HETATM    8  C   UNL     1     -21.450  -5.952  -2.667  1.00  0.00     0.000 C 
BRANCH   8   9
HETATM    9  C   UNL     1     -22.230  -6.591  -1.528  1.00  0.00     0.000 C 
BRANCH   9  10
HETATM   10  C   UNL     1     -21.579  -7.902  -1.116  1.00  0.00    -0.000 C 
BRANCH  10  11
HETATM   11  C   UNL     1     -21.795  -8.166   0.369  1.00  0.00    -0.005 C 
HETATM   12  C   UNL     1     -23.272  -8.118   0.708  1.00  0.00     0.005 C 
ENDBRANCH  10  11
ENDBRANCH   9  10
ENDBRANCH   8   9
ENDBRANCH   7   8
ENDBRANCH   6   7
ENDBRANCH   5   6
ENDBRANCH   4   5
ENDBRANCH   3   4
ENDBRANCH   2   3
ENDBRANCH   1   2
BRANCH   1  13
HETATM   13  C   UNL     1     -22.503  -4.521 -10.288  1.00  0.00     0.000 C 
BRANCH  13  14
HETATM   14  C   UNL     1     -23.503  -3.378 -10.377  1.00  0.00     0.000 C 
BRANCH  14  15
HETATM   15  C   UNL     1     -23.851  -3.076 -11.832  1.00  0.00     0.000 C 
BRANCH  15  16
HETATM   16  C   UNL     1     -22.813  -3.696 -12.758  1.00  0.00     0.010 C 
BRANCH  16  17
HETATM   17  C   UNL     1     -23.311  -3.816 -14.195  1.00  0.00     0.111 C 
BRANCH  17  18
HETATM   18  C   UNL     1     -23.991  -5.155 -14.398  1.00  0.00     0.258 C 
HETATM   19  O   UNL     1     -23.714  -6.180 -13.808  1.00  0.00    -0.265 OA
BRANCH  18  20
HETATM   20  O   UNL     1     -24.916  -5.052 -15.397  1.00  0.00    -0.321 OA
BRANCH  20  21
HETATM   21  C   UNL     1     -25.609  -6.284 -15.651  1.00  0.00     0.178 C 
BRANCH  21  22
HETATM   22  C   UNL     1     -26.304  -6.255 -17.006  1.00  0.00     0.026 C 
BRANCH  22  23
HETATM   23  C   UNL     1     -27.825  -6.274 -16.852  1.00  0.00    -0.002 C 
HETATM   24  C   UNL     1     -28.252  -7.124 -15.667  1.00  0.00     0.005 C 
ENDBRANCH  22  23
ENDBRANCH  21  22
ENDBRANCH  20  21
ENDBRANCH  18  20
ENDBRANCH  17  18
ENDBRANCH  16  17
ENDBRANCH  15  16
ENDBRANCH  14  15
ENDBRANCH  13  14
ENDBRANCH   1  13
TORSDOF 20
BEGIN_RES ARG D 557
REMARK  4 active torsions:
REMARK  status: ('A' for Active; 'I' for Inactive)
REMARK    1  A    between atoms: CA   and  CB  
REMARK    2  A    between atoms: CB   and  CG  
REMARK    3  A    between atoms: CG   and  CD  
REMARK    4  A    between atoms: CD   and  NE  
REMARK       I    between atoms: NE   and  CZ  
REMARK       I    between atoms: CZ   and  NH1 
REMARK       I    between atoms: CZ   and  NH2 
ROOT
ATOM      1  CA  ARG D 557     -26.217   2.705 -17.014  1.00 35.49     0.159 C 
ENDROOT
BRANCH   1   2
ATOM      2  CB  ARG D 557     -26.789   1.319 -17.183  1.00 35.49     0.034 C 
BRANCH   2   3
ATOM      3  CG  ARG D 557     -28.231   1.226 -17.443  1.00 35.49     0.027 C 
BRANCH   3   4
ATOM      4  CD  ARG D 557     -28.882   0.167 -16.639  1.00 35.49     0.116 C 
BRANCH   4   5
ATOM      5  NE  ARG D 557     -27.938  -0.806 -16.158  1.00 35.49    -0.212 N 
ATOM      6  CZ  ARG D 557     -27.919  -2.081 -16.478  1.00 35.49     0.666 C 
ATOM      7  NH1 ARG D 557     -28.806  -2.621 -17.293  1.00 35.49    -0.235 N 
ATOM      8  NH2 ARG D 557     -26.976  -2.815 -15.963  1.00 35.49    -0.235 N 
ATOM      9  HH  ARG D 557     -29.434  -2.156 -17.645  1.00 35.49     0.174 HD
ATOM     10  HH  ARG D 557     -28.742  -3.457 -17.468  1.00 35.49     0.174 HD
ATOM     11  HH  ARG D 557     -26.413  -2.438 -15.445  1.00 35.49     0.174 HD
ATOM     12  HH  ARG D 557     -26.929  -3.641 -16.149  1.00 35.49     0.174 HD
ATOM     13  HE  ARG D 557     -27.375  -0.560 -15.571  1.00 35.49     0.178 HD
ENDBRANCH   4   5
ENDBRANCH   3   4
ENDBRANCH   2   3
ENDBRANCH   1   2
END_RES ARG D 557
BEGIN_RES GLU D 570
REMARK  3 active torsions:
REMARK  status: ('A' for Active; 'I' for Inactive)
REMARK    5  A    between atoms: CA   and  CB  
REMARK    6  A    between atoms: CB   and  CG  
REMARK    7  A    between atoms: CG   and  CD  
ROOT
ATOM     14  CA  GLU D 570     -18.033  -6.348 -13.375  1.00 32.92     0.160 C 
ENDROOT
BRANCH  14  15
ATOM     15  CB  GLU D 570     -19.500  -6.345 -13.794  1.00 32.92     0.043 C 
BRANCH  15  16
ATOM     16  CG  GLU D 570     -19.799  -6.178 -15.240  1.00 32.92     0.100 C 
BRANCH  16  17
ATOM     17  CD  GLU D 570     -20.801  -7.185 -15.755  1.00 32.92     0.185 C 
ATOM     18  OE1 GLU D 570     -20.688  -8.379 -15.415  1.00 32.92    -0.647 OA
ATOM     19  OE2 GLU D 570     -21.698  -6.779 -16.519  1.00 32.92    -0.647 OA
ENDBRANCH  16  17
ENDBRANCH  15  16
ENDBRANCH  14  15
END_RES GLU D 570
ENDMDL
MODEL 5
REMARK VINA RESULT:      -6.9      2.596      4.463
REMARK  20 active torsions:
REMARK  status: ('A' for Active; 'I' for Inactive)
REMARK    1  A    between atoms: C_2  and  C_3 
REMARK    2  A    between atoms: C_3  and  C_4 
REMARK    3  A    between atoms: C_4  and  C_5 
REMARK    4  A    between atoms: C_5  and  C_6 
REMARK    5  A    between atoms: C_6  and  C_7 
REMARK    6  A    between atoms: C_7  and  C_8 
REMARK    7  A    between atoms: C_8  and  C_9 
REMARK    8  A    between atoms: C_9  and  C_10 
REMARK    9  A    between atoms: C_10  and  C_11 
REMARK   10  A    between atoms: C_11  and  C_12 
REMARK   11  A    between atoms: C_12  and  C_13 
REMARK   12  A    between atoms: C_13  and  C_14 
REMARK   13  A    between atoms: C_14  and  C_15 
REMARK   14  A    between atoms: C_15  and  C_16 
REMARK   15  A    between atoms: C_16  and  C_17 
REMARK   16  A    between atoms: C_17  and  C_18 
REMARK   17  A    between atoms: C_18  and  O_20 
REMARK   18  A    between atoms: O_20  and  C_21 
REMARK   19  A    between atoms: C_21  and  C_22 
REMARK   20  A    between atoms: C_22  and  C_23 
ROOT
HETATM    1  C   UNL     1     -24.662  -3.078 -13.189  1.00  0.00     0.000 C 
ENDROOT
BRANCH   1   2
HETATM    2  C   UNL     1     -23.585  -2.704 -12.183  1.00  0.00     0.000 C 
BRANCH   2   3
HETATM    3  C   UNL     1     -23.818  -3.435 -10.872  1.00  0.00     0.000 C 
BRANCH   3   4
HETATM    4  C   UNL     1     -22.628  -4.325 -10.557  1.00  0.00     0.000 C 
BRANCH   4   5
HETATM    5  C   UNL     1     -21.336  -3.613 -10.915  1.00  0.00     0.000 C 
BRANCH   5   6
HETATM    6  C   UNL     1     -20.145  -4.482 -10.550  1.00  0.00     0.000 C 
BRANCH   6   7
HETATM    7  C   UNL     1     -20.287  -4.988  -9.126  1.00  0.00     0.000 C 
BRANCH   7   8
HETATM    8  C   UNL     1     -19.912  -3.892  -8.143  1.00  0.00     0.000 C 
BRANCH   8   9
HETATM    9  C   UNL     1     -21.061  -3.640  -7.179  1.00  0.00     0.000 C 
BRANCH   9  10
HETATM   10  C   UNL     1     -21.486  -4.942  -6.515  1.00  0.00    -0.000 C 
BRANCH  10  11
HETATM   11  C   UNL     1     -20.527  -5.310  -5.391  1.00  0.00    -0.005 C 
HETATM   12  C   UNL     1     -21.262  -6.041  -4.283  1.00  0.00     0.005 C 
ENDBRANCH  10  11
ENDBRANCH   9  10
ENDBRANCH   8   9
ENDBRANCH   7   8
ENDBRANCH   6   7
ENDBRANCH   5   6
ENDBRANCH   4   5
ENDBRANCH   3   4
ENDBRANCH   2   3
ENDBRANCH   1   2
BRANCH   1  13
HETATM   13  C   UNL     1     -24.024  -3.597 -14.468  1.00  0.00     0.000 C 
BRANCH  13  14
HETATM   14  C   UNL     1     -23.083  -4.752 -14.163  1.00  0.00     0.000 C 
BRANCH  14  15
HETATM   15  C   UNL     1     -23.844  -6.074 -14.125  1.00  0.00     0.000 C 
BRANCH  15  16
HETATM   16  C   UNL     1     -24.227  -6.498 -15.537  1.00  0.00     0.010 C 
BRANCH  16  17
HETATM   17  C   UNL     1     -25.698  -6.885 -15.651  1.00  0.00     0.111 C 
BRANCH  17  18
HETATM   18  C   UNL     1     -26.300  -6.274 -16.900  1.00  0.00     0.258 C 
HETATM   19  O   UNL     1     -27.431  -5.841 -16.996  1.00  0.00    -0.265 OA
BRANCH  18  20
HETATM   20  O   UNL     1     -25.401  -6.348 -17.925  1.00  0.00    -0.321 OA
BRANCH  20  21
HETATM   21  C   UNL     1     -26.007  -6.687 -19.182  1.00  0.00     0.178 C 
BRANCH  21  22
HETATM   22  C   UNL     1     -24.984  -6.664 -20.311  1.00  0.00     0.026 C 
BRANCH  22  23
HETATM   23  C   UNL     1     -25.015  -7.963 -21.115  1.00  0.00    -0.002 C 
HETATM   24  C   UNL     1     -24.121  -7.878 -22.341  1.00  0.00     0.005 C 
ENDBRANCH  22  23
ENDBRANCH  21  22
ENDBRANCH  20  21
ENDBRANCH  18  20
ENDBRANCH  17  18
ENDBRANCH  16  17
ENDBRANCH  15  16
ENDBRANCH  14  15
ENDBRANCH  13  14
ENDBRANCH   1  13
TORSDOF 20
BEGIN_RES ARG D 557
REMARK  4 active torsions:
REMARK  status: ('A' for Active; 'I' for Inactive)
REMARK    1  A    between atoms: CA   and  CB  
REMARK    2  A    between atoms: CB   and  CG  
REMARK    3  A    between atoms: CG   and  CD  
REMARK    4  A    between atoms: CD   and  NE  
REMARK       I    between atoms: NE   and  CZ  
REMARK       I    between atoms: CZ   and  NH1 
REMARK       I    between atoms: CZ   and  NH2 
ROOT
ATOM      1  CA  ARG D 557     -26.217   2.705 -17.014  1.00 35.49     0.159 C 
ENDROOT
BRANCH   1   2
ATOM      2  CB  ARG D 557     -26.789   1.319 -17.183  1.00 35.49     0.034 C 
BRANCH   2   3
ATOM      3  CG  ARG D 557     -28.218   1.229 -17.506  1.00 35.49     0.027 C 
BRANCH   3   4
ATOM      4  CD  ARG D 557     -28.924   0.233 -16.669  1.00 35.49     0.116 C 
BRANCH   4   5
ATOM      5  NE  ARG D 557     -28.048  -0.816 -16.218  1.00 35.49    -0.212 N 
ATOM      6  CZ  ARG D 557     -28.119  -2.081 -16.567  1.00 35.49     0.666 C 
ATOM      7  NH1 ARG D 557     -29.047  -2.538 -17.388  1.00 35.49    -0.235 N 
ATOM      8  NH2 ARG D 557     -27.226  -2.890 -16.077  1.00 35.49    -0.235 N 
ATOM      9  HH  ARG D 557     -29.643  -2.022 -17.725  1.00 35.49     0.174 HD
ATOM     10  HH  ARG D 557     -29.042  -3.372 -17.583  1.00 35.49     0.174 HD
ATOM     11  HH  ARG D 557     -26.635  -2.566 -15.555  1.00 35.49     0.174 HD
ATOM     12  HH  ARG D 557     -27.238  -3.713 -16.282  1.00 35.49     0.174 HD
ATOM     13  HE  ARG D 557     -27.465  -0.623 -15.629  1.00 35.49     0.178 HD
ENDBRANCH   4   5
ENDBRANCH   3   4
ENDBRANCH   2   3
ENDBRANCH   1   2
END_RES ARG D 557
BEGIN_RES GLU D 570
REMARK  3 active torsions:
REMARK  status: ('A' for Active; 'I' for Inactive)
REMARK    5  A    between atoms: CA   and  CB  
REMARK    6  A    between atoms: CB   and  CG  
REMARK    7  A    between atoms: CG   and  CD  
ROOT
ATOM     14  CA  GLU D 570     -18.033  -6.348 -13.375  1.00 32.92     0.160 C 
ENDROOT
BRANCH  14  15
ATOM     15  CB  GLU D 570     -19.500  -6.345 -13.794  1.00 32.92     0.043 C 
BRANCH  15  16
ATOM     16  CG  GLU D 570     -19.805  -6.044 -15.217  1.00 32.92     0.100 C 
BRANCH  16  17
ATOM     17  CD  GLU D 570     -20.619  -7.127 -15.887  1.00 32.92     0.185 C 
ATOM     18  OE1 GLU D 570     -20.729  -8.235 -15.327  1.00 32.92    -0.647 OA
ATOM     19  OE2 GLU D 570     -21.138  -6.869 -16.991  1.00 32.92    -0.647 OA
ENDBRANCH  16  17
ENDBRANCH  15  16
ENDBRANCH  14  15
END_RES GLU D 570
ENDMDL
MODEL 6
REMARK VINA RESULT:      -6.8      3.872      9.672
REMARK  20 active torsions:
REMARK  status: ('A' for Active; 'I' for Inactive)
REMARK    1  A    between atoms: C_2  and  C_3 
REMARK    2  A    between atoms: C_3  and  C_4 
REMARK    3  A    between atoms: C_4  and  C_5 
REMARK    4  A    between atoms: C_5  and  C_6 
REMARK    5  A    between atoms: C_6  and  C_7 
REMARK    6  A    between atoms: C_7  and  C_8 
REMARK    7  A    between atoms: C_8  and  C_9 
REMARK    8  A    between atoms: C_9  and  C_10 
REMARK    9  A    between atoms: C_10  and  C_11 
REMARK   10  A    between atoms: C_11  and  C_12 
REMARK   11  A    between atoms: C_12  and  C_13 
REMARK   12  A    between atoms: C_13  and  C_14 
REMARK   13  A    between atoms: C_14  and  C_15 
REMARK   14  A    between atoms: C_15  and  C_16 
REMARK   15  A    between atoms: C_16  and  C_17 
REMARK   16  A    between atoms: C_17  and  C_18 
REMARK   17  A    between atoms: C_18  and  O_20 
REMARK   18  A    between atoms: O_20  and  C_21 
REMARK   19  A    between atoms: C_21  and  C_22 
REMARK   20  A    between atoms: C_22  and  C_23 
ROOT
HETATM    1  C   UNL     1     -21.323  -8.048  -0.577  1.00  0.00     0.000 C 
ENDROOT
BRANCH   1   2
HETATM    2  C   UNL     1     -22.431  -7.018  -0.722  1.00  0.00     0.000 C 
BRANCH   2   3
HETATM    3  C   UNL     1     -22.148  -6.110  -1.906  1.00  0.00     0.000 C 
BRANCH   3   4
HETATM    4  C   UNL     1     -21.302  -6.844  -2.932  1.00  0.00     0.000 C 
BRANCH   4   5
HETATM    5  C   UNL     1     -21.760  -6.488  -4.334  1.00  0.00     0.000 C 
BRANCH   5   6
HETATM    6  C   UNL     1     -20.802  -7.072  -5.358  1.00  0.00     0.000 C 
BRANCH   6   7
HETATM    7  C   UNL     1     -20.621  -6.102  -6.514  1.00  0.00     0.000 C 
BRANCH   7   8
HETATM    8  C   UNL     1     -21.788  -5.131  -6.567  1.00  0.00     0.000 C 
BRANCH   8   9
HETATM    9  C   UNL     1     -21.408  -3.902  -7.378  1.00  0.00     0.000 C 
BRANCH   9  10
HETATM   10  C   UNL     1     -20.124  -4.160  -8.152  1.00  0.00    -0.000 C 
BRANCH  10  11
HETATM   11  C   UNL     1     -20.392  -4.167  -9.651  1.00  0.00    -0.005 C 
HETATM   12  C   UNL     1     -21.852  -3.866  -9.932  1.00  0.00     0.005 C 
ENDBRANCH  10  11
ENDBRANCH   9  10
ENDBRANCH   8   9
ENDBRANCH   7   8
ENDBRANCH   6   7
ENDBRANCH   5   6
ENDBRANCH   4   5
ENDBRANCH   3   4
ENDBRANCH   2   3
ENDBRANCH   1   2
BRANCH   1  13
HETATM   13  C   UNL     1     -21.850  -9.287   0.132  1.00  0.00     0.000 C 
BRANCH  13  14
HETATM   14  C   UNL     1     -23.370  -9.322   0.081  1.00  0.00     0.000 C 
BRANCH  14  15
HETATM   15  C   UNL     1     -23.875 -10.760  -0.006  1.00  0.00     0.000 C 
BRANCH  15  16
HETATM   16  C   UNL     1     -22.810 -11.652  -0.632  1.00  0.00     0.010 C 
BRANCH  16  17
HETATM   17  C   UNL     1     -23.335 -12.431  -1.834  1.00  0.00     0.111 C 
BRANCH  17  18
HETATM   18  C   UNL     1     -22.512 -12.103  -3.064  1.00  0.00     0.258 C 
HETATM   19  O   UNL     1     -22.084 -12.914  -3.860  1.00  0.00    -0.265 OA
BRANCH  18  20
HETATM   20  O   UNL     1     -22.265 -10.761  -3.105  1.00  0.00    -0.321 OA
BRANCH  20  21
HETATM   21  C   UNL     1     -21.005 -10.439  -3.713  1.00  0.00     0.178 C 
BRANCH  21  22
HETATM   22  C   UNL     1     -19.854 -10.639  -2.735  1.00  0.00     0.026 C 
BRANCH  22  23
HETATM   23  C   UNL     1     -18.799  -9.543  -2.887  1.00  0.00    -0.002 C 
HETATM   24  C   UNL     1     -18.208  -9.531  -4.288  1.00  0.00     0.005 C 
ENDBRANCH  22  23
ENDBRANCH  21  22
ENDBRANCH  20  21
ENDBRANCH  18  20
ENDBRANCH  17  18
ENDBRANCH  16  17
ENDBRANCH  15  16
ENDBRANCH  14  15
ENDBRANCH  13  14
ENDBRANCH   1  13
TORSDOF 20
BEGIN_RES ARG D 557
REMARK  4 active torsions:
REMARK  status: ('A' for Active; 'I' for Inactive)
REMARK    1  A    between atoms: CA   and  CB  
REMARK    2  A    between atoms: CB   and  CG  
REMARK    3  A    between atoms: CG   and  CD  
REMARK    4  A    between atoms: CD   and  NE  
REMARK       I    between atoms: NE   and  CZ  
REMARK       I    between atoms: CZ   and  NH1 
REMARK       I    between atoms: CZ   and  NH2 
ROOT
ATOM      1  CA  ARG D 557     -26.217   2.705 -17.014  1.00 35.49     0.159 C 
ENDROOT
BRANCH   1   2
ATOM      2  CB  ARG D 557     -26.789   1.319 -17.183  1.00 35.49     0.034 C 
BRANCH   2   3
ATOM      3  CG  ARG D 557     -25.834   0.204 -17.168  1.00 35.49     0.027 C 
BRANCH   3   4
ATOM      4  CD  ARG D 557     -24.739   0.412 -16.194  1.00 35.49     0.116 C 
BRANCH   4   5
ATOM      5  NE  ARG D 557     -24.877  -0.430 -15.035  1.00 35.49    -0.212 N 
ATOM      6  CZ  ARG D 557     -24.054  -1.392 -14.682  1.00 35.49     0.666 C 
ATOM      7  NH1 ARG D 557     -22.983  -1.704 -15.389  1.00 35.49    -0.235 N 
ATOM      8  NH2 ARG D 557     -24.323  -2.041 -13.586  1.00 35.49    -0.235 N 
ATOM      9  HH  ARG D 557     -22.786  -1.289 -16.112  1.00 35.49     0.174 HD
ATOM     10  HH  ARG D 557     -22.481  -2.339 -15.108  1.00 35.49     0.174 HD
ATOM     11  HH  ARG D 557     -25.017  -1.812 -13.146  1.00 35.49     0.174 HD
ATOM     12  HH  ARG D 557     -23.813  -2.665 -13.324  1.00 35.49     0.174 HD
ATOM     13  HE  ARG D 557     -25.578  -0.346 -14.561  1.00 35.49     0.178 HD
ENDBRANCH   4   5
ENDBRANCH   3   4
ENDBRANCH   2   3
ENDBRANCH   1   2
END_RES ARG D 557
BEGIN_RES GLU D 570
REMARK  3 active torsions:
REMARK  status: ('A' for Active; 'I' for Inactive)
REMARK    5  A    between atoms: CA   and  CB  
REMARK    6  A    between atoms: CB   and  CG  
REMARK    7  A    between atoms: CG   and  CD  
ROOT
ATOM     14  CA  GLU D 570     -18.033  -6.348 -13.375  1.00 32.92     0.160 C 
ENDROOT
BRANCH  14  15
ATOM     15  CB  GLU D 570     -19.500  -6.345 -13.794  1.00 32.92     0.043 C 
BRANCH  15  16
ATOM     16  CG  GLU D 570     -20.440  -5.521 -12.991  1.00 32.92     0.100 C 
BRANCH  16  17
ATOM     17  CD  GLU D 570     -21.737  -5.237 -13.710  1.00 32.92     0.185 C 
ATOM     18  OE1 GLU D 570     -22.224  -6.113 -14.450  1.00 32.92    -0.647 OA
ATOM     19  OE2 GLU D 570     -22.265  -4.119 -13.546  1.00 32.92    -0.647 OA
ENDBRANCH  16  17
ENDBRANCH  15  16
ENDBRANCH  14  15
END_RES GLU D 570
ENDMDL
MODEL 7
REMARK VINA RESULT:      -6.8      2.240      3.555
REMARK  20 active torsions:
REMARK  status: ('A' for Active; 'I' for Inactive)
REMARK    1  A    between atoms: C_2  and  C_3 
REMARK    2  A    between atoms: C_3  and  C_4 
REMARK    3  A    between atoms: C_4  and  C_5 
REMARK    4  A    between atoms: C_5  and  C_6 
REMARK    5  A    between atoms: C_6  and  C_7 
REMARK    6  A    between atoms: C_7  and  C_8 
REMARK    7  A    between atoms: C_8  and  C_9 
REMARK    8  A    between atoms: C_9  and  C_10 
REMARK    9  A    between atoms: C_10  and  C_11 
REMARK   10  A    between atoms: C_11  and  C_12 
REMARK   11  A    between atoms: C_12  and  C_13 
REMARK   12  A    between atoms: C_13  and  C_14 
REMARK   13  A    between atoms: C_14  and  C_15 
REMARK   14  A    between atoms: C_15  and  C_16 
REMARK   15  A    between atoms: C_16  and  C_17 
REMARK   16  A    between atoms: C_17  and  C_18 
REMARK   17  A    between atoms: C_18  and  O_20 
REMARK   18  A    between atoms: O_20  and  C_21 
REMARK   19  A    between atoms: C_21  and  C_22 
REMARK   20  A    between atoms: C_22  and  C_23 
ROOT
HETATM    1  C   UNL     1     -23.804  -2.914 -12.839  1.00  0.00     0.000 C 
ENDROOT
BRANCH   1   2
HETATM    2  C   UNL     1     -22.622  -2.427 -12.016  1.00  0.00     0.000 C 
BRANCH   2   3
HETATM    3  C   UNL     1     -22.361  -3.380 -10.862  1.00  0.00     0.000 C 
BRANCH   3   4
HETATM    4  C   UNL     1     -20.897  -3.781 -10.842  1.00  0.00     0.000 C 
BRANCH   4   5
HETATM    5  C   UNL     1     -20.558  -4.449  -9.523  1.00  0.00     0.000 C 
BRANCH   5   6
HETATM    6  C   UNL     1     -21.646  -4.166  -8.502  1.00  0.00     0.000 C 
BRANCH   6   7
HETATM    7  C   UNL     1     -21.024  -3.864  -7.149  1.00  0.00     0.000 C 
BRANCH   7   8
HETATM    8  C   UNL     1     -19.724  -4.633  -6.990  1.00  0.00     0.000 C 
BRANCH   8   9
HETATM    9  C   UNL     1     -19.944  -5.855  -6.112  1.00  0.00     0.000 C 
BRANCH   9  10
HETATM   10  C   UNL     1     -20.935  -5.534  -5.003  1.00  0.00    -0.000 C 
BRANCH  10  11
HETATM   11  C   UNL     1     -22.030  -6.591  -4.939  1.00  0.00    -0.005 C 
HETATM   12  C   UNL     1     -21.470  -7.959  -5.278  1.00  0.00     0.005 C 
ENDBRANCH  10  11
ENDBRANCH   9  10
ENDBRANCH   8   9
ENDBRANCH   7   8
ENDBRANCH   6   7
ENDBRANCH   5   6
ENDBRANCH   4   5
ENDBRANCH   3   4
ENDBRANCH   2   3
ENDBRANCH   1   2
BRANCH   1  13
HETATM   13  C   UNL     1     -23.381  -3.126 -14.285  1.00  0.00     0.000 C 
BRANCH  13  14
HETATM   14  C   UNL     1     -22.626  -4.438 -14.431  1.00  0.00     0.000 C 
BRANCH  14  15
HETATM   15  C   UNL     1     -23.403  -5.584 -13.788  1.00  0.00     0.000 C 
BRANCH  15  16
HETATM   16  C   UNL     1     -24.013  -6.472 -14.864  1.00  0.00     0.010 C 
BRANCH  16  17
HETATM   17  C   UNL     1     -25.404  -6.007 -15.286  1.00  0.00     0.111 C 
BRANCH  17  18
HETATM   18  C   UNL     1     -25.692  -6.452 -16.705  1.00  0.00     0.258 C 
HETATM   19  O   UNL     1     -24.854  -6.768 -17.526  1.00  0.00    -0.265 OA
BRANCH  18  20
HETATM   20  O   UNL     1     -27.033  -6.375 -16.947  1.00  0.00    -0.321 OA
BRANCH  20  21
HETATM   21  C   UNL     1     -27.343  -6.040 -18.308  1.00  0.00     0.178 C 
BRANCH  21  22
HETATM   22  C   UNL     1     -28.661  -6.666 -18.743  1.00  0.00     0.026 C 
BRANCH  22  23
HETATM   23  C   UNL     1     -29.855  -5.916 -18.151  1.00  0.00    -0.002 C 
HETATM   24  C   UNL     1     -30.671  -6.809 -17.231  1.00  0.00     0.005 C 
ENDBRANCH  22  23
ENDBRANCH  21  22
ENDBRANCH  20  21
ENDBRANCH  18  20
ENDBRANCH  17  18
ENDBRANCH  16  17
ENDBRANCH  15  16
ENDBRANCH  14  15
ENDBRANCH  13  14
ENDBRANCH   1  13
TORSDOF 20
BEGIN_RES ARG D 557
REMARK  4 active torsions:
REMARK  status: ('A' for Active; 'I' for Inactive)
REMARK    1  A    between atoms: CA   and  CB  
REMARK    2  A    between atoms: CB   and  CG  
REMARK    3  A    between atoms: CG   and  CD  
REMARK    4  A    between atoms: CD   and  NE  
REMARK       I    between atoms: NE   and  CZ  
REMARK       I    between atoms: CZ   and  NH1 
REMARK       I    between atoms: CZ   and  NH2 
ROOT
ATOM      1  CA  ARG D 557     -26.217   2.705 -17.014  1.00 35.49     0.159 C 
ENDROOT
BRANCH   1   2
ATOM      2  CB  ARG D 557     -26.789   1.319 -17.183  1.00 35.49     0.034 C 
BRANCH   2   3
ATOM      3  CG  ARG D 557     -28.245   1.185 -17.057  1.00 35.49     0.027 C 
BRANCH   3   4
ATOM      4  CD  ARG D 557     -28.664  -0.213 -16.809  1.00 35.49     0.116 C 
BRANCH   4   5
ATOM      5  NE  ARG D 557     -27.663  -0.961 -16.096  1.00 35.49    -0.212 N 
ATOM      6  CZ  ARG D 557     -27.508  -2.266 -16.132  1.00 35.49     0.666 C 
ATOM      7  NH1 ARG D 557     -28.295  -3.054 -16.841  1.00 35.49    -0.235 N 
ATOM      8  NH2 ARG D 557     -26.532  -2.774 -15.438  1.00 35.49    -0.235 N 
ATOM      9  HH  ARG D 557     -28.943  -2.741 -17.307  1.00 35.49     0.174 HD
ATOM     10  HH  ARG D 557     -28.145  -3.898 -16.828  1.00 35.49     0.174 HD
ATOM     11  HH  ARG D 557     -26.035  -2.240 -14.995  1.00 35.49     0.174 HD
ATOM     12  HH  ARG D 557     -26.398  -3.611 -15.439  1.00 35.49     0.174 HD
ATOM     13  HE  ARG D 557     -27.158  -0.540 -15.557  1.00 35.49     0.178 HD
ENDBRANCH   4   5
ENDBRANCH   3   4
ENDBRANCH   2   3
ENDBRANCH   1   2
END_RES ARG D 557
BEGIN_RES GLU D 570
REMARK  3 active torsions:
REMARK  status: ('A' for Active; 'I' for Inactive)
REMARK    5  A    between atoms: CA   and  CB  
REMARK    6  A    between atoms: CB   and  CG  
REMARK    7  A    between atoms: CG   and  CD  
ROOT
ATOM     14  CA  GLU D 570     -18.033  -6.348 -13.375  1.00 32.92     0.160 C 
ENDROOT
BRANCH  14  15
ATOM     15  CB  GLU D 570     -19.500  -6.345 -13.794  1.00 32.92     0.043 C 
BRANCH  15  16
ATOM     16  CG  GLU D 570     -19.796  -6.296 -15.249  1.00 32.92     0.100 C 
BRANCH  16  17
ATOM     17  CD  GLU D 570     -20.631  -7.464 -15.720  1.00 32.92     0.185 C 
ATOM     18  OE1 GLU D 570     -21.301  -7.347 -16.764  1.00 32.92    -0.647 OA
ATOM     19  OE2 GLU D 570     -20.629  -8.501 -15.028  1.00 32.92    -0.647 OA
ENDBRANCH  16  17
ENDBRANCH  15  16
ENDBRANCH  14  15
END_RES GLU D 570
ENDMDL
MODEL 8
REMARK VINA RESULT:      -6.8      3.217      6.856
REMARK  20 active torsions:
REMARK  status: ('A' for Active; 'I' for Inactive)
REMARK    1  A    between atoms: C_2  and  C_3 
REMARK    2  A    between atoms: C_3  and  C_4 
REMARK    3  A    between atoms: C_4  and  C_5 
REMARK    4  A    between atoms: C_5  and  C_6 
REMARK    5  A    between atoms: C_6  and  C_7 
REMARK    6  A    between atoms: C_7  and  C_8 
REMARK    7  A    between atoms: C_8  and  C_9 
REMARK    8  A    between atoms: C_9  and  C_10 
REMARK    9  A    between atoms: C_10  and  C_11 
REMARK   10  A    between atoms: C_11  and  C_12 
REMARK   11  A    between atoms: C_12  and  C_13 
REMARK   12  A    between atoms: C_13  and  C_14 
REMARK   13  A    between atoms: C_14  and  C_15 
REMARK   14  A    between atoms: C_15  and  C_16 
REMARK   15  A    between atoms: C_16  and  C_17 
REMARK   16  A    between atoms: C_17  and  C_18 
REMARK   17  A    between atoms: C_18  and  O_20 
REMARK   18  A    between atoms: O_20  and  C_21 
REMARK   19  A    between atoms: C_21  and  C_22 
REMARK   20  A    between atoms: C_22  and  C_23 
ROOT
HETATM    1  C   UNL     1     -21.906  -7.498  -1.442  1.00  0.00     0.000 C 
ENDROOT
BRANCH   1   2
HETATM    2  C   UNL     1     -22.569  -7.514  -0.074  1.00  0.00     0.000 C 
BRANCH   2   3
HETATM    3  C   UNL     1     -22.579  -8.926   0.486  1.00  0.00     0.000 C 
BRANCH   3   4
HETATM    4  C   UNL     1     -21.162  -9.363   0.814  1.00  0.00     0.000 C 
BRANCH   4   5
HETATM    5  C   UNL     1     -21.055 -10.875   0.747  1.00  0.00     0.000 C 
BRANCH   5   6
HETATM    6  C   UNL     1     -19.785 -11.275   0.016  1.00  0.00     0.000 C 
BRANCH   6   7
HETATM    7  C   UNL     1     -19.766 -10.656  -1.371  1.00  0.00     0.000 C 
BRANCH   7   8
HETATM    8  C   UNL     1     -20.573 -11.508  -2.334  1.00  0.00     0.000 C 
BRANCH   8   9
HETATM    9  C   UNL     1     -21.414 -10.621  -3.238  1.00  0.00     0.000 C 
BRANCH   9  10
HETATM   10  C   UNL     1     -22.892 -10.801  -2.924  1.00  0.00    -0.000 C 
BRANCH  10  11
HETATM   11  C   UNL     1     -23.113 -12.049  -2.079  1.00  0.00    -0.005 C 
HETATM   12  C   UNL     1     -24.166 -11.793  -1.018  1.00  0.00     0.005 C 
ENDBRANCH  10  11
ENDBRANCH   9  10
ENDBRANCH   8   9
ENDBRANCH   7   8
ENDBRANCH   6   7
ENDBRANCH   5   6
ENDBRANCH   4   5
ENDBRANCH   3   4
ENDBRANCH   2   3
ENDBRANCH   1   2
BRANCH   1  13
HETATM   13  C   UNL     1     -22.145  -6.159  -2.123  1.00  0.00     0.000 C 
BRANCH  13  14
HETATM   14  C   UNL     1     -21.283  -6.037  -3.370  1.00  0.00     0.000 C 
BRANCH  14  15
HETATM   15  C   UNL     1     -21.809  -6.942  -4.481  1.00  0.00     0.000 C 
BRANCH  15  16
HETATM   16  C   UNL     1     -21.024  -6.706  -5.765  1.00  0.00     0.010 C 
BRANCH  16  17
HETATM   17  C   UNL     1     -20.330  -5.347  -5.783  1.00  0.00     0.111 C 
BRANCH  17  18
HETATM   18  C   UNL     1     -19.802  -5.053  -7.173  1.00  0.00     0.258 C 
HETATM   19  O   UNL     1     -18.779  -4.447  -7.422  1.00  0.00    -0.265 OA
BRANCH  18  20
HETATM   20  O   UNL     1     -20.688  -5.509  -8.106  1.00  0.00    -0.321 OA
BRANCH  20  21
HETATM   21  C   UNL     1     -21.226  -4.464  -8.930  1.00  0.00     0.178 C 
BRANCH  21  22
HETATM   22  C   UNL     1     -22.605  -4.033  -8.445  1.00  0.00     0.026 C 
BRANCH  22  23
HETATM   23  C   UNL     1     -23.538  -3.736  -9.618  1.00  0.00    -0.002 C 
HETATM   24  C   UNL     1     -23.739  -4.963 -10.493  1.00  0.00     0.005 C 
ENDBRANCH  22  23
ENDBRANCH  21  22
ENDBRANCH  20  21
ENDBRANCH  18  20
ENDBRANCH  17  18
ENDBRANCH  16  17
ENDBRANCH  15  16
ENDBRANCH  14  15
ENDBRANCH  13  14
ENDBRANCH   1  13
TORSDOF 20
BEGIN_RES ARG D 557
REMARK  4 active torsions:
REMARK  status: ('A' for Active; 'I' for Inactive)
REMARK    1  A    between atoms: CA   and  CB  
REMARK    2  A    between atoms: CB   and  CG  
REMARK    3  A    between atoms: CG   and  CD  
REMARK    4  A    between atoms: CD   and  NE  
REMARK       I    between atoms: NE   and  CZ  
REMARK       I    between atoms: CZ   and  NH1 
REMARK       I    between atoms: CZ   and  NH2 
ROOT
ATOM      1  CA  ARG D 557     -26.217   2.705 -17.014  1.00 35.49     0.159 C 
ENDROOT
BRANCH   1   2
ATOM      2  CB  ARG D 557     -26.789   1.319 -17.183  1.00 35.49     0.034 C 
BRANCH   2   3
ATOM      3  CG  ARG D 557     -25.917   0.196 -16.819  1.00 35.49     0.027 C 
BRANCH   3   4
ATOM      4  CD  ARG D 557     -26.657  -0.898 -16.147  1.00 35.49     0.116 C 
BRANCH   4   5
ATOM      5  NE  ARG D 557     -25.890  -1.500 -15.088  1.00 35.49    -0.212 N 
ATOM      6  CZ  ARG D 557     -25.913  -2.769 -14.749  1.00 35.49     0.666 C 
ATOM      7  NH1 ARG D 557     -26.681  -3.652 -15.360  1.00 35.49    -0.235 N 
ATOM      8  NH2 ARG D 557     -25.135  -3.145 -13.776  1.00 35.49    -0.235 N 
ATOM      9  HH  ARG D 557     -27.200  -3.428 -16.005  1.00 35.49     0.174 HD
ATOM     10  HH  ARG D 557     -26.652  -4.468 -15.098  1.00 35.49     0.174 HD
ATOM     11  HH  ARG D 557     -24.645  -2.555 -13.405  1.00 35.49     0.174 HD
ATOM     12  HH  ARG D 557     -25.120  -3.957 -13.532  1.00 35.49     0.174 HD
ATOM     13  HE  ARG D 557     -25.422  -0.990 -14.594  1.00 35.49     0.178 HD
ENDBRANCH   4   5
ENDBRANCH   3   4
ENDBRANCH   2   3
ENDBRANCH   1   2
END_RES ARG D 557
BEGIN_RES GLU D 570
REMARK  3 active torsions:
REMARK  status: ('A' for Active; 'I' for Inactive)
REMARK    5  A    between atoms: CA   and  CB  
REMARK    6  A    between atoms: CB   and  CG  
REMARK    7  A    between atoms: CG   and  CD  
ROOT
ATOM     14  CA  GLU D 570     -18.033  -6.348 -13.375  1.00 32.92     0.160 C 
ENDROOT
BRANCH  14  15
ATOM     15  CB  GLU D 570     -19.500  -6.345 -13.794  1.00 32.92     0.043 C 
BRANCH  15  16
ATOM     16  CG  GLU D 570     -20.447  -5.556 -12.964  1.00 32.92     0.100 C 
BRANCH  16  17
ATOM     17  CD  GLU D 570     -21.729  -5.221 -13.691  1.00 32.92     0.185 C 
ATOM     18  OE1 GLU D 570     -22.198  -4.071 -13.591  1.00 32.92    -0.647 OA
ATOM     19  OE2 GLU D 570     -22.278  -6.123 -14.354  1.00 32.92    -0.647 OA
ENDBRANCH  16  17
ENDBRANCH  15  16
ENDBRANCH  14  15
END_RES GLU D 570
ENDMDL
MODEL 9
REMARK VINA RESULT:      -6.8      1.876      2.989
REMARK  20 active torsions:
REMARK  status: ('A' for Active; 'I' for Inactive)
REMARK    1  A    between atoms: C_2  and  C_3 
REMARK    2  A    between atoms: C_3  and  C_4 
REMARK    3  A    between atoms: C_4  and  C_5 
REMARK    4  A    between atoms: C_5  and  C_6 
REMARK    5  A    between atoms: C_6  and  C_7 
REMARK    6  A    between atoms: C_7  and  C_8 
REMARK    7  A    between atoms: C_8  and  C_9 
REMARK    8  A    between atoms: C_9  and  C_10 
REMARK    9  A    between atoms: C_10  and  C_11 
REMARK   10  A    between atoms: C_11  and  C_12 
REMARK   11  A    between atoms: C_12  and  C_13 
REMARK   12  A    between atoms: C_13  and  C_14 
REMARK   13  A    between atoms: C_14  and  C_15 
REMARK   14  A    between atoms: C_15  and  C_16 
REMARK   15  A    between atoms: C_16  and  C_17 
REMARK   16  A    between atoms: C_17  and  C_18 
REMARK   17  A    between atoms: C_18  and  O_20 
REMARK   18  A    between atoms: O_20  and  C_21 
REMARK   19  A    between atoms: C_21  and  C_22 
REMARK   20  A    between atoms: C_22  and  C_23 
ROOT
HETATM    1  C   UNL     1     -21.413  -4.256  -8.706  1.00  0.00     0.000 C 
ENDROOT
BRANCH   1   2
HETATM    2  C   UNL     1     -20.822  -5.309  -7.783  1.00  0.00     0.000 C 
BRANCH   2   3
HETATM    3  C   UNL     1     -19.909  -4.654  -6.761  1.00  0.00     0.000 C 
BRANCH   3   4
HETATM    4  C   UNL     1     -20.200  -5.207  -5.377  1.00  0.00     0.000 C 
BRANCH   4   5
HETATM    5  C   UNL     1     -21.329  -6.218  -5.448  1.00  0.00     0.000 C 
BRANCH   5   6
HETATM    6  C   UNL     1     -21.483  -6.921  -4.110  1.00  0.00     0.000 C 
BRANCH   6   7
HETATM    7  C   UNL     1     -21.441  -5.905  -2.981  1.00  0.00     0.000 C 
BRANCH   7   8
HETATM    8  C   UNL     1     -22.067  -6.491  -1.728  1.00  0.00     0.000 C 
BRANCH   8   9
HETATM    9  C   UNL     1     -21.757  -7.977  -1.635  1.00  0.00     0.000 C 
BRANCH   9  10
HETATM   10  C   UNL     1     -20.997  -8.276  -0.352  1.00  0.00    -0.000 C 
BRANCH  10  11
HETATM   11  C   UNL     1     -21.917  -8.164   0.856  1.00  0.00    -0.005 C 
HETATM   12  C   UNL     1     -23.296  -8.703   0.528  1.00  0.00     0.005 C 
ENDBRANCH  10  11
ENDBRANCH   9  10
ENDBRANCH   8   9
ENDBRANCH   7   8
ENDBRANCH   6   7
ENDBRANCH   5   6
ENDBRANCH   4   5
ENDBRANCH   3   4
ENDBRANCH   2   3
ENDBRANCH   1   2
BRANCH   1  13
HETATM   13  C   UNL     1     -22.859  -3.977  -8.323  1.00  0.00     0.000 C 
BRANCH  13  14
HETATM   14  C   UNL     1     -23.716  -3.806  -9.568  1.00  0.00     0.000 C 
BRANCH  14  15
HETATM   15  C   UNL     1     -22.867  -3.938 -10.830  1.00  0.00     0.000 C 
BRANCH  15  16
HETATM   16  C   UNL     1     -23.400  -5.064 -11.705  1.00  0.00     0.010 C 
BRANCH  16  17
HETATM   17  C   UNL     1     -22.693  -5.139 -13.055  1.00  0.00     0.111 C 
BRANCH  17  18
HETATM   18  C   UNL     1     -23.688  -5.484 -14.144  1.00  0.00     0.258 C 
HETATM   19  O   UNL     1     -24.140  -6.591 -14.357  1.00  0.00    -0.265 OA
BRANCH  18  20
HETATM   20  O   UNL     1     -23.947  -4.375 -14.897  1.00  0.00    -0.321 OA
BRANCH  20  21
HETATM   21  C   UNL     1     -25.071  -3.621 -14.420  1.00  0.00     0.178 C 
BRANCH  21  22
HETATM   22  C   UNL     1     -24.645  -2.238 -13.944  1.00  0.00     0.026 C 
BRANCH  22  23
HETATM   23  C   UNL     1     -24.995  -1.163 -14.974  1.00  0.00    -0.002 C 
HETATM   24  C   UNL     1     -23.769  -0.360 -15.377  1.00  0.00     0.005 C 
ENDBRANCH  22  23
ENDBRANCH  21  22
ENDBRANCH  20  21
ENDBRANCH  18  20
ENDBRANCH  17  18
ENDBRANCH  16  17
ENDBRANCH  15  16
ENDBRANCH  14  15
ENDBRANCH  13  14
ENDBRANCH   1  13
TORSDOF 20
BEGIN_RES ARG D 557
REMARK  4 active torsions:
REMARK  status: ('A' for Active; 'I' for Inactive)
REMARK    1  A    between atoms: CA   and  CB  
REMARK    2  A    between atoms: CB   and  CG  
REMARK    3  A    between atoms: CG   and  CD  
REMARK    4  A    between atoms: CD   and  NE  
REMARK       I    between atoms: NE   and  CZ  
REMARK       I    between atoms: CZ   and  NH1 
REMARK       I    between atoms: CZ   and  NH2 
ROOT
ATOM      1  CA  ARG D 557     -26.217   2.705 -17.014  1.00 35.49     0.159 C 
ENDROOT
BRANCH   1   2
ATOM      2  CB  ARG D 557     -26.789   1.319 -17.183  1.00 35.49     0.034 C 
BRANCH   2   3
ATOM      3  CG  ARG D 557     -28.210   1.230 -17.542  1.00 35.49     0.027 C 
BRANCH   3   4
ATOM      4  CD  ARG D 557     -28.943   0.254 -16.704  1.00 35.49     0.116 C 
BRANCH   4   5
ATOM      5  NE  ARG D 557     -28.224  -0.983 -16.556  1.00 35.49    -0.212 N 
ATOM      6  CZ  ARG D 557     -28.659  -2.172 -16.907  1.00 35.49     0.666 C 
ATOM      7  NH1 ARG D 557     -29.853  -2.361 -17.439  1.00 35.49    -0.235 N 
ATOM      8  NH2 ARG D 557     -27.862  -3.184 -16.719  1.00 35.49    -0.235 N 
ATOM      9  HH  ARG D 557     -30.393  -1.710 -17.574  1.00 35.49     0.174 HD
ATOM     10  HH  ARG D 557     -30.082  -3.159 -17.651  1.00 35.49     0.174 HD
ATOM     11  HH  ARG D 557     -27.095  -3.030 -16.380  1.00 35.49     0.174 HD
ATOM     12  HH  ARG D 557     -28.107  -3.966 -16.937  1.00 35.49     0.174 HD
ATOM     13  HE  ARG D 557     -27.474  -0.963 -16.155  1.00 35.49     0.178 HD
ENDBRANCH   4   5
ENDBRANCH   3   4
ENDBRANCH   2   3
ENDBRANCH   1   2
END_RES ARG D 557
BEGIN_RES GLU D 570
REMARK  3 active torsions:
REMARK  status: ('A' for Active; 'I' for Inactive)
REMARK    5  A    between atoms: CA   and  CB  
REMARK    6  A    between atoms: CB   and  CG  
REMARK    7  A    between atoms: CG   and  CD  
ROOT
ATOM     14  CA  GLU D 570     -18.033  -6.348 -13.375  1.00 32.92     0.160 C 
ENDROOT
BRANCH  14  15
ATOM     15  CB  GLU D 570     -19.500  -6.345 -13.794  1.00 32.92     0.043 C 
BRANCH  15  16
ATOM     16  CG  GLU D 570     -20.018  -7.556 -14.483  1.00 32.92     0.100 C 
BRANCH  16  17
ATOM     17  CD  GLU D 570     -20.807  -7.232 -15.729  1.00 32.92     0.185 C 
ATOM     18  OE1 GLU D 570     -20.522  -6.206 -16.377  1.00 32.92    -0.647 OA
ATOM     19  OE2 GLU D 570     -21.732  -8.003 -16.053  1.00 32.92    -0.647 OA
ENDBRANCH  16  17
ENDBRANCH  15  16
ENDBRANCH  14  15
END_RES GLU D 570
ENDMDL
