MODEL 1
REMARK VINA RESULT:      -6.4      0.000      0.000
REMARK  6 active torsions:
REMARK  status: ('A' for Active; 'I' for Inactive)
REMARK    1  A    between atoms: C_1  and  C_2 
REMARK    2  A    between atoms: C_1  and  O_12 
REMARK    3  A    between atoms: C_3  and  O_11 
REMARK    4  A    between atoms: C_4  and  O_10 
REMARK    5  A    between atoms: C_5  and  O_9 
REMARK    6  A    between atoms: C_6  and  O_8 
ROOT
HETATM    1  C   UNL     1     -24.002  -2.873 -11.317  1.00  0.00     0.179 C 
HETATM    2  C   UNL     1     -24.563  -3.180 -12.713  1.00  0.00     0.180 C 
HETATM    3  C   UNL     1     -23.974  -4.493 -13.253  1.00  0.00     0.183 C 
HETATM    4  C   UNL     1     -22.440  -4.438 -13.240  1.00  0.00     0.204 C 
HETATM    5  C   UNL     1     -21.948  -4.045 -11.833  1.00  0.00     0.288 C 
HETATM    6  O   UNL     1     -22.561  -2.849 -11.351  1.00  0.00    -0.349 OA
ENDROOT
BRANCH   1   7
HETATM    7  C   UNL     1     -24.513  -3.806 -10.213  1.00  0.00     0.198 C 
BRANCH   7   8
HETATM    8  O   UNL     1     -25.756  -3.321  -9.715  1.00  0.00    -0.398 OA
HETATM    9  H   UNL     1     -26.207  -4.077  -9.280  1.00  0.00     0.209 HD
ENDBRANCH   7   8
ENDBRANCH   1   7
BRANCH   2  10
HETATM   10  O   UNL     1     -24.166  -2.129 -13.626  1.00  0.00    -0.390 OA
HETATM   11  H   UNL     1     -23.407  -2.453 -14.148  1.00  0.00     0.210 HD
ENDBRANCH   2  10
BRANCH   3  12
HETATM   12  O   UNL     1     -24.456  -4.727 -14.577  1.00  0.00    -0.390 OA
HETATM   13  H   UNL     1     -24.965  -3.927 -14.819  1.00  0.00     0.210 HD
ENDBRANCH   3  12
BRANCH   5  14
HETATM   14  O   UNL     1     -20.545  -3.824 -11.865  1.00  0.00    -0.369 OA
HETATM   15  H   UNL     1     -20.430  -2.910 -11.537  1.00  0.00     0.212 HD
ENDBRANCH   5  14
BRANCH   4  16
HETATM   16  O   UNL     1     -21.944  -3.470 -14.194  1.00  0.00    -0.388 OA
HETATM   17  H   UNL     1     -22.421  -2.631 -14.011  1.00  0.00     0.210 HD
ENDBRANCH   4  16
TORSDOF 6
BEGIN_RES ARG D 557
REMARK  4 active torsions:
REMARK  status: ('A' for Active; 'I' for Inactive)
REMARK    1  A    between atoms: CA   and  CB  
REMARK    2  A    between atoms: CB   and  CG  
REMARK    3  A    between atoms: CG   and  CD  
REMARK    4  A    between atoms: CD   and  NE  
REMARK       I    between atoms: NE   and  CZ  
REMARK       I    between atoms: CZ   and  NH1 
REMARK       I    between atoms: CZ   and  NH2 
ROOT
ATOM      1  CA  ARG D 557     -26.217   2.705 -17.014  1.00 35.49     0.159 C 
ENDROOT
BRANCH   1   2
ATOM      2  CB  ARG D 557     -26.789   1.319 -17.183  1.00 35.49     0.034 C 
BRANCH   2   3
ATOM      3  CG  ARG D 557     -28.234   1.170 -16.970  1.00 35.49     0.027 C 
BRANCH   3   4
ATOM      4  CD  ARG D 557     -28.640  -0.247 -16.825  1.00 35.49     0.116 C 
BRANCH   4   5
ATOM      5  NE  ARG D 557     -27.652  -1.024 -16.124  1.00 35.49    -0.212 N 
ATOM      6  CZ  ARG D 557     -27.515  -2.330 -16.188  1.00 35.49     0.666 C 
ATOM      7  NH1 ARG D 557     -28.309  -3.091 -16.918  1.00 35.49    -0.235 N 
ATOM      8  NH2 ARG D 557     -26.549  -2.867 -15.501  1.00 35.49    -0.235 N 
ATOM      9  HH  ARG D 557     -28.950  -2.759 -17.380  1.00 35.49     0.174 HD
ATOM     10  HH  ARG D 557     -28.171  -3.936 -16.923  1.00 35.49     0.174 HD
ATOM     11  HH  ARG D 557     -26.048  -2.350 -15.044  1.00 35.49     0.174 HD
ATOM     12  HH  ARG D 557     -26.427  -3.705 -15.520  1.00 35.49     0.174 HD
ATOM     13  HE  ARG D 557     -27.144  -0.622 -15.573  1.00 35.49     0.178 HD
ENDBRANCH   4   5
ENDBRANCH   3   4
ENDBRANCH   2   3
ENDBRANCH   1   2
END_RES ARG D 557
BEGIN_RES GLU D 570
REMARK  3 active torsions:
REMARK  status: ('A' for Active; 'I' for Inactive)
REMARK    5  A    between atoms: CA   and  CB  
REMARK    6  A    between atoms: CB   and  CG  
REMARK    7  A    between atoms: CG   and  CD  
ROOT
ATOM     14  CA  GLU D 570     -18.033  -6.348 -13.375  1.00 32.92     0.160 C 
ENDROOT
BRANCH  14  15
ATOM     15  CB  GLU D 570     -19.500  -6.345 -13.794  1.00 32.92     0.043 C 
BRANCH  15  16
ATOM     16  CG  GLU D 570     -19.800  -6.144 -15.235  1.00 32.92     0.100 C 
BRANCH  16  17
ATOM     17  CD  GLU D 570     -21.064  -6.843 -15.677  1.00 32.92     0.185 C 
ATOM     18  OE1 GLU D 570     -22.062  -6.158 -15.973  1.00 32.92    -0.647 OA
ATOM     19  OE2 GLU D 570     -21.062  -8.089 -15.712  1.00 32.92    -0.647 OA
ENDBRANCH  16  17
ENDBRANCH  15  16
ENDBRANCH  14  15
END_RES GLU D 570
ENDMDL
MODEL 2
REMARK VINA RESULT:      -6.3      3.755      6.075
REMARK  6 active torsions:
REMARK  status: ('A' for Active; 'I' for Inactive)
REMARK    1  A    between atoms: C_1  and  C_2 
REMARK    2  A    between atoms: C_1  and  O_12 
REMARK    3  A    between atoms: C_3  and  O_11 
REMARK    4  A    between atoms: C_4  and  O_10 
REMARK    5  A    between atoms: C_5  and  O_9 
REMARK    6  A    between atoms: C_6  and  O_8 
ROOT
HETATM    1  C   UNL     1     -29.498  -4.393 -18.018  1.00  0.00     0.179 C 
HETATM    2  C   UNL     1     -29.147  -5.889 -18.002  1.00  0.00     0.180 C 
HETATM    3  C   UNL     1     -28.718  -6.325 -16.592  1.00  0.00     0.183 C 
HETATM    4  C   UNL     1     -27.561  -5.450 -16.089  1.00  0.00     0.204 C 
HETATM    5  C   UNL     1     -27.947  -3.964 -16.210  1.00  0.00     0.288 C 
HETATM    6  O   UNL     1     -28.390  -3.615 -17.522  1.00  0.00    -0.349 OA
ENDROOT
BRANCH   1   7
HETATM    7  C   UNL     1     -30.794  -4.042 -17.280  1.00  0.00     0.198 C 
BRANCH   7   8
HETATM    8  O   UNL     1     -31.458  -2.980 -17.960  1.00  0.00    -0.398 OA
HETATM    9  H   UNL     1     -32.307  -2.824 -17.492  1.00  0.00     0.209 HD
ENDBRANCH   7   8
ENDBRANCH   1   7
BRANCH   2  10
HETATM   10  O   UNL     1     -28.022  -6.123 -18.881  1.00  0.00    -0.390 OA
HETATM   11  H   UNL     1     -28.253  -5.779 -19.764  1.00  0.00     0.210 HD
ENDBRANCH   2  10
BRANCH   3  12
HETATM   12  O   UNL     1     -28.334  -7.701 -16.612  1.00  0.00    -0.390 OA
HETATM   13  H   UNL     1     -29.086  -8.181 -17.014  1.00  0.00     0.210 HD
ENDBRANCH   3  12
BRANCH   5  14
HETATM   14  O   UNL     1     -26.819  -3.154 -15.910  1.00  0.00    -0.369 OA
HETATM   15  H   UNL     1     -26.105  -3.501 -16.481  1.00  0.00     0.212 HD
ENDBRANCH   5  14
BRANCH   4  16
HETATM   16  O   UNL     1     -26.358  -5.683 -16.858  1.00  0.00    -0.388 OA
HETATM   17  H   UNL     1     -26.636  -6.161 -17.669  1.00  0.00     0.210 HD
ENDBRANCH   4  16
TORSDOF 6
BEGIN_RES ARG D 557
REMARK  4 active torsions:
REMARK  status: ('A' for Active; 'I' for Inactive)
REMARK    1  A    between atoms: CA   and  CB  
REMARK    2  A    between atoms: CB   and  CG  
REMARK    3  A    between atoms: CG   and  CD  
REMARK    4  A    between atoms: CD   and  NE  
REMARK       I    between atoms: NE   and  CZ  
REMARK       I    between atoms: CZ   and  NH1 
REMARK       I    between atoms: CZ   and  NH2 
ROOT
ATOM      1  CA  ARG D 557     -26.217   2.705 -17.014  1.00 35.49     0.159 C 
ENDROOT
BRANCH   1   2
ATOM      2  CB  ARG D 557     -26.789   1.319 -17.183  1.00 35.49     0.034 C 
BRANCH   2   3
ATOM      3  CG  ARG D 557     -25.834   0.204 -17.172  1.00 35.49     0.027 C 
BRANCH   3   4
ATOM      4  CD  ARG D 557     -24.809   0.350 -16.114  1.00 35.49     0.116 C 
BRANCH   4   5
ATOM      5  NE  ARG D 557     -25.033  -0.551 -15.014  1.00 35.49    -0.212 N 
ATOM      6  CZ  ARG D 557     -24.230  -1.522 -14.641  1.00 35.49     0.666 C 
ATOM      7  NH1 ARG D 557     -23.101  -1.790 -15.270  1.00 35.49    -0.235 N 
ATOM      8  NH2 ARG D 557     -24.583  -2.228 -13.606  1.00 35.49    -0.235 N 
ATOM      9  HH  ARG D 557     -22.848  -1.337 -15.952  1.00 35.49     0.174 HD
ATOM     10  HH  ARG D 557     -22.616  -2.434 -14.980  1.00 35.49     0.174 HD
ATOM     11  HH  ARG D 557     -25.314  -2.028 -13.215  1.00 35.49     0.174 HD
ATOM     12  HH  ARG D 557     -24.088  -2.861 -13.333  1.00 35.49     0.174 HD
ATOM     13  HE  ARG D 557     -25.772  -0.497 -14.597  1.00 35.49     0.178 HD
ENDBRANCH   4   5
ENDBRANCH   3   4
ENDBRANCH   2   3
ENDBRANCH   1   2
END_RES ARG D 557
BEGIN_RES GLU D 570
REMARK  3 active torsions:
REMARK  status: ('A' for Active; 'I' for Inactive)
REMARK    5  A    between atoms: CA   and  CB  
REMARK    6  A    between atoms: CB   and  CG  
REMARK    7  A    between atoms: CG   and  CD  
ROOT
ATOM     14  CA  GLU D 570     -18.033  -6.348 -13.375  1.00 32.92     0.160 C 
ENDROOT
BRANCH  14  15
ATOM     15  CB  GLU D 570     -19.500  -6.345 -13.794  1.00 32.92     0.043 C 
BRANCH  15  16
ATOM     16  CG  GLU D 570     -20.444  -5.539 -12.977  1.00 32.92     0.100 C 
BRANCH  16  17
ATOM     17  CD  GLU D 570     -21.738  -5.240 -13.696  1.00 32.92     0.185 C 
ATOM     18  OE1 GLU D 570     -22.338  -4.177 -13.445  1.00 32.92    -0.647 OA
ATOM     19  OE2 GLU D 570     -22.166  -6.085 -14.506  1.00 32.92    -0.647 OA
ENDBRANCH  16  17
ENDBRANCH  15  16
ENDBRANCH  14  15
END_RES GLU D 570
ENDMDL
MODEL 3
REMARK VINA RESULT:      -6.2      4.180      6.671
REMARK  6 active torsions:
REMARK  status: ('A' for Active; 'I' for Inactive)
REMARK    1  A    between atoms: C_1  and  C_2 
REMARK    2  A    between atoms: C_1  and  O_12 
REMARK    3  A    between atoms: C_3  and  O_11 
REMARK    4  A    between atoms: C_4  and  O_10 
REMARK    5  A    between atoms: C_5  and  O_9 
REMARK    6  A    between atoms: C_6  and  O_8 
ROOT
HETATM    1  C   UNL     1     -29.983  -7.017 -17.383  1.00  0.00     0.179 C 
HETATM    2  C   UNL     1     -30.677  -5.661 -17.184  1.00  0.00     0.180 C 
HETATM    3  C   UNL     1     -29.966  -4.568 -17.996  1.00  0.00     0.183 C 
HETATM    4  C   UNL     1     -28.474  -4.517 -17.637  1.00  0.00     0.204 C 
HETATM    5  C   UNL     1     -27.860  -5.923 -17.779  1.00  0.00     0.288 C 
HETATM    6  O   UNL     1     -28.584  -6.915 -17.050  1.00  0.00    -0.349 OA
ENDROOT
BRANCH   1   7
HETATM    7  C   UNL     1     -30.177  -7.624 -18.777  1.00  0.00     0.198 C 
BRANCH   7   8
HETATM    8  O   UNL     1     -29.505  -8.879 -18.847  1.00  0.00    -0.398 OA
HETATM    9  H   UNL     1     -28.626  -8.713 -19.252  1.00  0.00     0.209 HD
ENDBRANCH   7   8
ENDBRANCH   1   7
BRANCH   2  10
HETATM   10  O   UNL     1     -30.586  -5.281 -15.789  1.00  0.00    -0.390 OA
HETATM   11  H   UNL     1     -30.442  -4.317 -15.748  1.00  0.00     0.210 HD
ENDBRANCH   2  10
BRANCH   3  12
HETATM   12  O   UNL     1     -30.584  -3.304 -17.746  1.00  0.00    -0.390 OA
HETATM   13  H   UNL     1     -29.926  -2.781 -17.246  1.00  0.00     0.210 HD
ENDBRANCH   3  12
BRANCH   5  14
HETATM   14  O   UNL     1     -26.529  -5.914 -17.282  1.00  0.00    -0.369 OA
HETATM   15  H   UNL     1     -26.107  -6.696 -17.687  1.00  0.00     0.212 HD
ENDBRANCH   5  14
BRANCH   4  16
HETATM   16  O   UNL     1     -28.279  -4.059 -16.279  1.00  0.00    -0.388 OA
HETATM   17  H   UNL     1     -28.645  -3.149 -16.238  1.00  0.00     0.210 HD
ENDBRANCH   4  16
TORSDOF 6
BEGIN_RES ARG D 557
REMARK  4 active torsions:
REMARK  status: ('A' for Active; 'I' for Inactive)
REMARK    1  A    between atoms: CA   and  CB  
REMARK    2  A    between atoms: CB   and  CG  
REMARK    3  A    between atoms: CG   and  CD  
REMARK    4  A    between atoms: CD   and  NE  
REMARK       I    between atoms: NE   and  CZ  
REMARK       I    between atoms: CZ   and  NH1 
REMARK       I    between atoms: CZ   and  NH2 
ROOT
ATOM      1  CA  ARG D 557     -26.217   2.705 -17.014  1.00 35.49     0.159 C 
ENDROOT
BRANCH   1   2
ATOM      2  CB  ARG D 557     -26.789   1.319 -17.183  1.00 35.49     0.034 C 
BRANCH   2   3
ATOM      3  CG  ARG D 557     -25.868   0.195 -16.976  1.00 35.49     0.027 C 
BRANCH   3   4
ATOM      4  CD  ARG D 557     -26.344  -0.738 -15.929  1.00 35.49     0.116 C 
BRANCH   4   5
ATOM      5  NE  ARG D 557     -25.342  -0.984 -14.925  1.00 35.49    -0.212 N 
ATOM      6  CZ  ARG D 557     -25.084  -2.145 -14.366  1.00 35.49     0.666 C 
ATOM      7  NH1 ARG D 557     -25.752  -3.243 -14.669  1.00 35.49    -0.235 N 
ATOM      8  NH2 ARG D 557     -24.124  -2.189 -13.489  1.00 35.49    -0.235 N 
ATOM      9  HH  ARG D 557     -26.386  -3.238 -15.245  1.00 35.49     0.174 HD
ATOM     10  HH  ARG D 557     -25.538  -3.972 -14.274  1.00 35.49     0.174 HD
ATOM     11  HH  ARG D 557     -23.704  -1.466 -13.318  1.00 35.49     0.174 HD
ATOM     12  HH  ARG D 557     -23.925  -2.920 -13.109  1.00 35.49     0.174 HD
ATOM     13  HE  ARG D 557     -24.912  -0.318 -14.618  1.00 35.49     0.178 HD
ENDBRANCH   4   5
ENDBRANCH   3   4
ENDBRANCH   2   3
ENDBRANCH   1   2
END_RES ARG D 557
BEGIN_RES GLU D 570
REMARK  3 active torsions:
REMARK  status: ('A' for Active; 'I' for Inactive)
REMARK    5  A    between atoms: CA   and  CB  
REMARK    6  A    between atoms: CB   and  CG  
REMARK    7  A    between atoms: CG   and  CD  
ROOT
ATOM     14  CA  GLU D 570     -18.033  -6.348 -13.375  1.00 32.92     0.160 C 
ENDROOT
BRANCH  14  15
ATOM     15  CB  GLU D 570     -19.500  -6.345 -13.794  1.00 32.92     0.043 C 
BRANCH  15  16
ATOM     16  CG  GLU D 570     -20.448  -5.560 -12.962  1.00 32.92     0.100 C 
BRANCH  16  17
ATOM     17  CD  GLU D 570     -21.685  -5.136 -13.718  1.00 32.92     0.185 C 
ATOM     18  OE1 GLU D 570     -22.720  -4.861 -13.081  1.00 32.92    -0.647 OA
ATOM     19  OE2 GLU D 570     -21.623  -5.094 -14.963  1.00 32.92    -0.647 OA
ENDBRANCH  16  17
ENDBRANCH  15  16
ENDBRANCH  14  15
END_RES GLU D 570
ENDMDL
MODEL 4
REMARK VINA RESULT:      -6.1      1.380      2.811
REMARK  6 active torsions:
REMARK  status: ('A' for Active; 'I' for Inactive)
REMARK    1  A    between atoms: C_1  and  C_2 
REMARK    2  A    between atoms: C_1  and  O_12 
REMARK    3  A    between atoms: C_3  and  O_11 
REMARK    4  A    between atoms: C_4  and  O_10 
REMARK    5  A    between atoms: C_5  and  O_9 
REMARK    6  A    between atoms: C_6  and  O_8 
ROOT
HETATM    1  C   UNL     1     -24.657  -2.537 -13.762  1.00  0.00     0.179 C 
HETATM    2  C   UNL     1     -23.937  -2.680 -12.412  1.00  0.00     0.180 C 
HETATM    3  C   UNL     1     -22.540  -3.288 -12.609  1.00  0.00     0.183 C 
HETATM    4  C   UNL     1     -22.637  -4.623 -13.362  1.00  0.00     0.204 C 
HETATM    5  C   UNL     1     -23.439  -4.426 -14.662  1.00  0.00     0.288 C 
HETATM    6  O   UNL     1     -24.708  -3.810 -14.438  1.00  0.00    -0.349 OA
ENDROOT
BRANCH   1   7
HETATM    7  C   UNL     1     -24.075  -1.451 -14.674  1.00  0.00     0.198 C 
BRANCH   7   8
HETATM    8  O   UNL     1     -25.051  -0.434 -14.887  1.00  0.00    -0.398 OA
HETATM    9  H   UNL     1     -24.655   0.221 -15.502  1.00  0.00     0.209 HD
ENDBRANCH   7   8
ENDBRANCH   1   7
BRANCH   2  10
HETATM   10  O   UNL     1     -24.683  -3.591 -11.571  1.00  0.00    -0.390 OA
HETATM   11  H   UNL     1     -24.862  -3.141 -10.723  1.00  0.00     0.210 HD
ENDBRANCH   2  10
BRANCH   3  12
HETATM   12  O   UNL     1     -21.914  -3.474 -11.338  1.00  0.00    -0.390 OA
HETATM   13  H   UNL     1     -21.580  -2.592 -11.076  1.00  0.00     0.210 HD
ENDBRANCH   3  12
BRANCH   5  14
HETATM   14  O   UNL     1     -23.679  -5.688 -15.269  1.00  0.00    -0.369 OA
HETATM   15  H   UNL     1     -23.787  -5.490 -16.220  1.00  0.00     0.212 HD
ENDBRANCH   5  14
BRANCH   4  16
HETATM   16  O   UNL     1     -23.295  -5.629 -12.557  1.00  0.00    -0.388 OA
HETATM   17  H   UNL     1     -23.827  -5.145 -11.888  1.00  0.00     0.210 HD
ENDBRANCH   4  16
TORSDOF 6
BEGIN_RES ARG D 557
REMARK  4 active torsions:
REMARK  status: ('A' for Active; 'I' for Inactive)
REMARK    1  A    between atoms: CA   and  CB  
REMARK    2  A    between atoms: CB   and  CG  
REMARK    3  A    between atoms: CG   and  CD  
REMARK    4  A    between atoms: CD   and  NE  
REMARK       I    between atoms: NE   and  CZ  
REMARK       I    between atoms: CZ   and  NH1 
REMARK       I    between atoms: CZ   and  NH2 
ROOT
ATOM      1  CA  ARG D 557     -26.217   2.705 -17.014  1.00 35.49     0.159 C 
ENDROOT
BRANCH   1   2
ATOM      2  CB  ARG D 557     -26.789   1.319 -17.183  1.00 35.49     0.034 C 
BRANCH   2   3
ATOM      3  CG  ARG D 557     -28.237   1.224 -17.402  1.00 35.49     0.027 C 
BRANCH   3   4
ATOM      4  CD  ARG D 557     -28.880   0.233 -16.508  1.00 35.49     0.116 C 
BRANCH   4   5
ATOM      5  NE  ARG D 557     -27.972  -0.814 -16.119  1.00 35.49    -0.212 N 
ATOM      6  CZ  ARG D 557     -28.019  -2.062 -16.526  1.00 35.49     0.666 C 
ATOM      7  NH1 ARG D 557     -28.948  -2.503 -17.354  1.00 35.49    -0.235 N 
ATOM      8  NH2 ARG D 557     -27.101  -2.872 -16.086  1.00 35.49    -0.235 N 
ATOM      9  HH  ARG D 557     -29.561  -1.987 -17.658  1.00 35.49     0.174 HD
ATOM     10  HH  ARG D 557     -28.927  -3.328 -17.587  1.00 35.49     0.174 HD
ATOM     11  HH  ARG D 557     -26.509  -2.558 -15.558  1.00 35.49     0.174 HD
ATOM     12  HH  ARG D 557     -27.096  -3.685 -16.329  1.00 35.49     0.174 HD
ATOM     13  HE  ARG D 557     -27.385  -0.635 -15.530  1.00 35.49     0.178 HD
ENDBRANCH   4   5
ENDBRANCH   3   4
ENDBRANCH   2   3
ENDBRANCH   1   2
END_RES ARG D 557
BEGIN_RES GLU D 570
REMARK  3 active torsions:
REMARK  status: ('A' for Active; 'I' for Inactive)
REMARK    5  A    between atoms: CA   and  CB  
REMARK    6  A    between atoms: CB   and  CG  
REMARK    7  A    between atoms: CG   and  CD  
ROOT
ATOM     14  CA  GLU D 570     -18.033  -6.348 -13.375  1.00 32.92     0.160 C 
ENDROOT
BRANCH  14  15
ATOM     15  CB  GLU D 570     -19.500  -6.345 -13.794  1.00 32.92     0.043 C 
BRANCH  15  16
ATOM     16  CG  GLU D 570     -20.092  -7.638 -14.223  1.00 32.92     0.100 C 
BRANCH  16  17
ATOM     17  CD  GLU D 570     -20.725  -7.571 -15.594  1.00 32.92     0.185 C 
ATOM     18  OE1 GLU D 570     -21.064  -8.630 -16.156  1.00 32.92    -0.647 OA
ATOM     19  OE2 GLU D 570     -20.867  -6.448 -16.117  1.00 32.92    -0.647 OA
ENDBRANCH  16  17
ENDBRANCH  15  16
ENDBRANCH  14  15
END_RES GLU D 570
ENDMDL
MODEL 5
REMARK VINA RESULT:      -6.1      1.314      3.117
REMARK  6 active torsions:
REMARK  status: ('A' for Active; 'I' for Inactive)
REMARK    1  A    between atoms: C_1  and  C_2 
REMARK    2  A    between atoms: C_1  and  O_12 
REMARK    3  A    between atoms: C_3  and  O_11 
REMARK    4  A    between atoms: C_4  and  O_10 
REMARK    5  A    between atoms: C_5  and  O_9 
REMARK    6  A    between atoms: C_6  and  O_8 
ROOT
HETATM    1  C   UNL     1     -22.912  -4.950 -14.348  1.00  0.00     0.179 C 
HETATM    2  C   UNL     1     -22.631  -4.694 -12.860  1.00  0.00     0.180 C 
HETATM    3  C   UNL     1     -23.890  -4.163 -12.158  1.00  0.00     0.183 C 
HETATM    4  C   UNL     1     -24.416  -2.911 -12.875  1.00  0.00     0.204 C 
HETATM    5  C   UNL     1     -24.597  -3.213 -14.375  1.00  0.00     0.288 C 
HETATM    6  O   UNL     1     -23.419  -3.754 -14.974  1.00  0.00    -0.349 OA
ENDROOT
BRANCH   1   7
HETATM    7  C   UNL     1     -23.830  -6.147 -14.619  1.00  0.00     0.198 C 
BRANCH   7   8
HETATM    8  O   UNL     1     -23.737  -6.518 -15.992  1.00  0.00    -0.398 OA
HETATM    9  H   UNL     1     -23.846  -5.698 -16.520  1.00  0.00     0.209 HD
ENDBRANCH   7   8
ENDBRANCH   1   7
BRANCH   2  10
HETATM   10  O   UNL     1     -21.612  -3.673 -12.738  1.00  0.00    -0.390 OA
HETATM   11  H   UNL     1     -21.184  -3.569 -13.608  1.00  0.00     0.210 HD
ENDBRANCH   2  10
BRANCH   3  12
HETATM   12  O   UNL     1     -23.591  -3.869 -10.792  1.00  0.00    -0.390 OA
HETATM   13  H   UNL     1     -24.022  -3.011 -10.605  1.00  0.00     0.210 HD
ENDBRANCH   3  12
BRANCH   5  14
HETATM   14  O   UNL     1     -24.915  -2.013 -15.066  1.00  0.00    -0.369 OA
HETATM   15  H   UNL     1     -25.756  -1.712 -14.668  1.00  0.00     0.212 HD
ENDBRANCH   5  14
BRANCH   4  16
HETATM   16  O   UNL     1     -23.498  -1.802 -12.731  1.00  0.00    -0.388 OA
HETATM   17  H   UNL     1     -22.829  -1.902 -13.443  1.00  0.00     0.210 HD
ENDBRANCH   4  16
TORSDOF 6
BEGIN_RES ARG D 557
REMARK  4 active torsions:
REMARK  status: ('A' for Active; 'I' for Inactive)
REMARK    1  A    between atoms: CA   and  CB  
REMARK    2  A    between atoms: CB   and  CG  
REMARK    3  A    between atoms: CG   and  CD  
REMARK    4  A    between atoms: CD   and  NE  
REMARK       I    between atoms: NE   and  CZ  
REMARK       I    between atoms: CZ   and  NH1 
REMARK       I    between atoms: CZ   and  NH2 
ROOT
ATOM      1  CA  ARG D 557     -26.217   2.705 -17.014  1.00 35.49     0.159 C 
ENDROOT
BRANCH   1   2
ATOM      2  CB  ARG D 557     -26.789   1.319 -17.183  1.00 35.49     0.034 C 
BRANCH   2   3
ATOM      3  CG  ARG D 557     -28.187   1.127 -16.778  1.00 35.49     0.027 C 
BRANCH   3   4
ATOM      4  CD  ARG D 557     -28.729  -0.177 -17.222  1.00 35.49     0.116 C 
BRANCH   4   5
ATOM      5  NE  ARG D 557     -28.014  -1.286 -16.648  1.00 35.49    -0.212 N 
ATOM      6  CZ  ARG D 557     -28.295  -2.557 -16.828  1.00 35.49     0.666 C 
ATOM      7  NH1 ARG D 557     -29.309  -2.961 -17.570  1.00 35.49    -0.235 N 
ATOM      8  NH2 ARG D 557     -27.525  -3.430 -16.246  1.00 35.49    -0.235 N 
ATOM      9  HH  ARG D 557     -29.828  -2.404 -17.964  1.00 35.49     0.174 HD
ATOM     10  HH  ARG D 557     -29.442  -3.803 -17.653  1.00 35.49     0.174 HD
ATOM     11  HH  ARG D 557     -26.873  -3.141 -15.779  1.00 35.49     0.174 HD
ATOM     12  HH  ARG D 557     -27.672  -4.260 -16.342  1.00 35.49     0.174 HD
ATOM     13  HE  ARG D 557     -27.389  -1.116 -16.097  1.00 35.49     0.178 HD
ENDBRANCH   4   5
ENDBRANCH   3   4
ENDBRANCH   2   3
ENDBRANCH   1   2
END_RES ARG D 557
BEGIN_RES GLU D 570
REMARK  3 active torsions:
REMARK  status: ('A' for Active; 'I' for Inactive)
REMARK    5  A    between atoms: CA   and  CB  
REMARK    6  A    between atoms: CB   and  CG  
REMARK    7  A    between atoms: CG   and  CD  
ROOT
ATOM     14  CA  GLU D 570     -18.033  -6.348 -13.375  1.00 32.92     0.160 C 
ENDROOT
BRANCH  14  15
ATOM     15  CB  GLU D 570     -19.500  -6.345 -13.794  1.00 32.92     0.043 C 
BRANCH  15  16
ATOM     16  CG  GLU D 570     -20.089  -7.636 -14.235  1.00 32.92     0.100 C 
BRANCH  16  17
ATOM     17  CD  GLU D 570     -20.677  -7.571 -15.625  1.00 32.92     0.185 C 
ATOM     18  OE1 GLU D 570     -20.539  -6.528 -16.293  1.00 32.92    -0.647 OA
ATOM     19  OE2 GLU D 570     -21.296  -8.569 -16.045  1.00 32.92    -0.647 OA
ENDBRANCH  16  17
ENDBRANCH  15  16
ENDBRANCH  14  15
END_RES GLU D 570
ENDMDL
MODEL 6
REMARK VINA RESULT:      -5.9      2.822      4.121
REMARK  6 active torsions:
REMARK  status: ('A' for Active; 'I' for Inactive)
REMARK    1  A    between atoms: C_1  and  C_2 
REMARK    2  A    between atoms: C_1  and  O_12 
REMARK    3  A    between atoms: C_3  and  O_11 
REMARK    4  A    between atoms: C_4  and  O_10 
REMARK    5  A    between atoms: C_5  and  O_9 
REMARK    6  A    between atoms: C_6  and  O_8 
ROOT
HETATM    1  C   UNL     1     -26.723  -5.840 -16.654  1.00  0.00     0.179 C 
HETATM    2  C   UNL     1     -25.768  -6.970 -17.065  1.00  0.00     0.180 C 
HETATM    3  C   UNL     1     -24.965  -7.463 -15.851  1.00  0.00     0.183 C 
HETATM    4  C   UNL     1     -24.229  -6.292 -15.184  1.00  0.00     0.204 C 
HETATM    5  C   UNL     1     -25.229  -5.162 -14.874  1.00  0.00     0.288 C 
HETATM    6  O   UNL     1     -25.991  -4.773 -16.018  1.00  0.00    -0.349 OA
ENDROOT
BRANCH   1   7
HETATM    7  C   UNL     1     -27.902  -6.294 -15.786  1.00  0.00     0.198 C 
BRANCH   7   8
HETATM    8  O   UNL     1     -28.704  -5.168 -15.443  1.00  0.00    -0.398 OA
HETATM    9  H   UNL     1     -29.567  -5.514 -15.127  1.00  0.00     0.209 HD
ENDBRANCH   7   8
ENDBRANCH   1   7
BRANCH   2  10
HETATM   10  O   UNL     1     -24.815  -6.461 -18.028  1.00  0.00    -0.390 OA
HETATM   11  H   UNL     1     -24.287  -5.766 -17.591  1.00  0.00     0.210 HD
ENDBRANCH   2  10
BRANCH   3  12
HETATM   12  O   UNL     1     -24.037  -8.467 -16.265  1.00  0.00    -0.390 OA
HETATM   13  H   UNL     1     -23.168  -8.186 -15.915  1.00  0.00     0.210 HD
ENDBRANCH   3  12
BRANCH   5  14
HETATM   14  O   UNL     1     -24.525  -4.015 -14.420  1.00  0.00    -0.369 OA
HETATM   15  H   UNL     1     -25.222  -3.372 -14.185  1.00  0.00     0.212 HD
ENDBRANCH   5  14
BRANCH   4  16
HETATM   16  O   UNL     1     -23.189  -5.771 -16.044  1.00  0.00    -0.388 OA
HETATM   17  H   UNL     1     -23.644  -5.284 -16.766  1.00  0.00     0.210 HD
ENDBRANCH   4  16
TORSDOF 6
BEGIN_RES ARG D 557
REMARK  4 active torsions:
REMARK  status: ('A' for Active; 'I' for Inactive)
REMARK    1  A    between atoms: CA   and  CB  
REMARK    2  A    between atoms: CB   and  CG  
REMARK    3  A    between atoms: CG   and  CD  
REMARK    4  A    between atoms: CD   and  NE  
REMARK       I    between atoms: NE   and  CZ  
REMARK       I    between atoms: CZ   and  NH1 
REMARK       I    between atoms: CZ   and  NH2 
ROOT
ATOM      1  CA  ARG D 557     -26.217   2.705 -17.014  1.00 35.49     0.159 C 
ENDROOT
BRANCH   1   2
ATOM      2  CB  ARG D 557     -26.789   1.319 -17.183  1.00 35.49     0.034 C 
BRANCH   2   3
ATOM      3  CG  ARG D 557     -28.238   1.224 -17.397  1.00 35.49     0.027 C 
BRANCH   3   4
ATOM      4  CD  ARG D 557     -28.883   0.262 -16.474  1.00 35.49     0.116 C 
BRANCH   4   5
ATOM      5  NE  ARG D 557     -29.257  -0.959 -17.138  1.00 35.49    -0.212 N 
ATOM      6  CZ  ARG D 557     -28.639  -2.114 -17.028  1.00 35.49     0.666 C 
ATOM      7  NH1 ARG D 557     -27.564  -2.274 -16.279  1.00 35.49    -0.235 N 
ATOM      8  NH2 ARG D 557     -29.130  -3.123 -17.687  1.00 35.49    -0.235 N 
ATOM      9  HH  ARG D 557     -27.224  -1.624 -15.835  1.00 35.49     0.174 HD
ATOM     10  HH  ARG D 557     -27.205  -3.051 -16.243  1.00 35.49     0.174 HD
ATOM     11  HH  ARG D 557     -29.830  -2.992 -18.156  1.00 35.49     0.174 HD
ATOM     12  HH  ARG D 557     -28.761  -3.885 -17.637  1.00 35.49     0.174 HD
ATOM     13  HE  ARG D 557     -29.896  -0.930 -17.698  1.00 35.49     0.178 HD
ENDBRANCH   4   5
ENDBRANCH   3   4
ENDBRANCH   2   3
ENDBRANCH   1   2
END_RES ARG D 557
BEGIN_RES GLU D 570
REMARK  3 active torsions:
REMARK  status: ('A' for Active; 'I' for Inactive)
REMARK    5  A    between atoms: CA   and  CB  
REMARK    6  A    between atoms: CB   and  CG  
REMARK    7  A    between atoms: CG   and  CD  
ROOT
ATOM     14  CA  GLU D 570     -18.033  -6.348 -13.375  1.00 32.92     0.160 C 
ENDROOT
BRANCH  14  15
ATOM     15  CB  GLU D 570     -19.500  -6.345 -13.794  1.00 32.92     0.043 C 
BRANCH  15  16
ATOM     16  CG  GLU D 570     -20.098  -7.643 -14.201  1.00 32.92     0.100 C 
BRANCH  16  17
ATOM     17  CD  GLU D 570     -20.606  -7.637 -15.624  1.00 32.92     0.185 C 
ATOM     18  OE1 GLU D 570     -20.493  -6.598 -16.303  1.00 32.92    -0.647 OA
ATOM     19  OE2 GLU D 570     -21.138  -8.677 -16.059  1.00 32.92    -0.647 OA
ENDBRANCH  16  17
ENDBRANCH  15  16
ENDBRANCH  14  15
END_RES GLU D 570
ENDMDL
MODEL 7
REMARK VINA RESULT:      -5.5      1.250      2.883
REMARK  6 active torsions:
REMARK  status: ('A' for Active; 'I' for Inactive)
REMARK    1  A    between atoms: C_1  and  C_2 
REMARK    2  A    between atoms: C_1  and  O_12 
REMARK    3  A    between atoms: C_3  and  O_11 
REMARK    4  A    between atoms: C_4  and  O_10 
REMARK    5  A    between atoms: C_5  and  O_9 
REMARK    6  A    between atoms: C_6  and  O_8 
ROOT
HETATM    1  C   UNL     1     -23.652  -2.957 -12.764  1.00  0.00     0.179 C 
HETATM    2  C   UNL     1     -22.191  -3.237 -12.380  1.00  0.00     0.180 C 
HETATM    3  C   UNL     1     -22.094  -4.516 -11.534  1.00  0.00     0.183 C 
HETATM    4  C   UNL     1     -23.010  -4.418 -10.306  1.00  0.00     0.204 C 
HETATM    5  C   UNL     1     -24.438  -4.055 -10.755  1.00  0.00     0.288 C 
HETATM    6  O   UNL     1     -24.475  -2.891 -11.582  1.00  0.00    -0.349 OA
ENDROOT
BRANCH   1   7
HETATM    7  C   UNL     1     -24.233  -3.937 -13.788  1.00  0.00     0.198 C 
BRANCH   7   8
HETATM    8  O   UNL     1     -24.936  -3.214 -14.796  1.00  0.00    -0.398 OA
HETATM    9  H   UNL     1     -24.803  -2.259 -14.610  1.00  0.00     0.209 HD
ENDBRANCH   7   8
ENDBRANCH   1   7
BRANCH   2  10
HETATM   10  O   UNL     1     -21.697  -2.148 -11.564  1.00  0.00    -0.390 OA
HETATM   11  H   UNL     1     -20.730  -2.246 -11.484  1.00  0.00     0.210 HD
ENDBRANCH   2  10
BRANCH   3  12
HETATM   12  O   UNL     1     -20.738  -4.723 -11.132  1.00  0.00    -0.390 OA
HETATM   13  H   UNL     1     -20.518  -3.973 -10.543  1.00  0.00     0.210 HD
ENDBRANCH   3  12
BRANCH   5  14
HETATM   14  O   UNL     1     -25.243  -3.793  -9.614  1.00  0.00    -0.369 OA
HETATM   15  H   UNL     1     -25.702  -4.638  -9.435  1.00  0.00     0.212 HD
ENDBRANCH   5  14
BRANCH   4  16
HETATM   16  O   UNL     1     -22.541  -3.408  -9.383  1.00  0.00    -0.388 OA
HETATM   17  H   UNL     1     -21.671  -3.720  -9.050  1.00  0.00     0.210 HD
ENDBRANCH   4  16
TORSDOF 6
BEGIN_RES ARG D 557
REMARK  4 active torsions:
REMARK  status: ('A' for Active; 'I' for Inactive)
REMARK    1  A    between atoms: CA   and  CB  
REMARK    2  A    between atoms: CB   and  CG  
REMARK    3  A    between atoms: CG   and  CD  
REMARK    4  A    between atoms: CD   and  NE  
REMARK       I    between atoms: NE   and  CZ  
REMARK       I    between atoms: CZ   and  NH1 
REMARK       I    between atoms: CZ   and  NH2 
ROOT
ATOM      1  CA  ARG D 557     -26.217   2.705 -17.014  1.00 35.49     0.159 C 
ENDROOT
BRANCH   1   2
ATOM      2  CB  ARG D 557     -26.789   1.319 -17.183  1.00 35.49     0.034 C 
BRANCH   2   3
ATOM      3  CG  ARG D 557     -28.234   1.226 -17.425  1.00 35.49     0.027 C 
BRANCH   3   4
ATOM      4  CD  ARG D 557     -28.903   0.292 -16.490  1.00 35.49     0.116 C 
BRANCH   4   5
ATOM      5  NE  ARG D 557     -29.257  -0.950 -17.124  1.00 35.49    -0.212 N 
ATOM      6  CZ  ARG D 557     -28.604  -2.085 -17.008  1.00 35.49     0.666 C 
ATOM      7  NH1 ARG D 557     -27.508  -2.202 -16.281  1.00 35.49    -0.235 N 
ATOM      8  NH2 ARG D 557     -29.081  -3.119 -17.638  1.00 35.49    -0.235 N 
ATOM      9  HH  ARG D 557     -27.178  -1.535 -15.856  1.00 35.49     0.174 HD
ATOM     10  HH  ARG D 557     -27.127  -2.968 -16.240  1.00 35.49     0.174 HD
ATOM     11  HH  ARG D 557     -29.794  -3.016 -18.094  1.00 35.49     0.174 HD
ATOM     12  HH  ARG D 557     -28.689  -3.869 -17.584  1.00 35.49     0.174 HD
ATOM     13  HE  ARG D 557     -29.909  -0.949 -17.670  1.00 35.49     0.178 HD
ENDBRANCH   4   5
ENDBRANCH   3   4
ENDBRANCH   2   3
ENDBRANCH   1   2
END_RES ARG D 557
BEGIN_RES GLU D 570
REMARK  3 active torsions:
REMARK  status: ('A' for Active; 'I' for Inactive)
REMARK    5  A    between atoms: CA   and  CB  
REMARK    6  A    between atoms: CB   and  CG  
REMARK    7  A    between atoms: CG   and  CD  
ROOT
ATOM     14  CA  GLU D 570     -18.033  -6.348 -13.375  1.00 32.92     0.160 C 
ENDROOT
BRANCH  14  15
ATOM     15  CB  GLU D 570     -19.500  -6.345 -13.794  1.00 32.92     0.043 C 
BRANCH  15  16
ATOM     16  CG  GLU D 570     -19.798  -6.204 -15.243  1.00 32.92     0.100 C 
BRANCH  16  17
ATOM     17  CD  GLU D 570     -20.633  -7.340 -15.786  1.00 32.92     0.185 C 
ATOM     18  OE1 GLU D 570     -21.321  -7.150 -16.807  1.00 32.92    -0.647 OA
ATOM     19  OE2 GLU D 570     -20.612  -8.426 -15.174  1.00 32.92    -0.647 OA
ENDBRANCH  16  17
ENDBRANCH  15  16
ENDBRANCH  14  15
END_RES GLU D 570
ENDMDL
MODEL 8
REMARK VINA RESULT:      -5.3      4.003      6.538
REMARK  6 active torsions:
REMARK  status: ('A' for Active; 'I' for Inactive)
REMARK    1  A    between atoms: C_1  and  C_2 
REMARK    2  A    between atoms: C_1  and  O_12 
REMARK    3  A    between atoms: C_3  and  O_11 
REMARK    4  A    between atoms: C_4  and  O_10 
REMARK    5  A    between atoms: C_5  and  O_9 
REMARK    6  A    between atoms: C_6  and  O_8 
ROOT
HETATM    1  C   UNL     1     -28.975  -6.562 -18.488  1.00  0.00     0.179 C 
HETATM    2  C   UNL     1     -27.933  -6.903 -17.411  1.00  0.00     0.180 C 
HETATM    3  C   UNL     1     -28.345  -6.308 -16.056  1.00  0.00     0.183 C 
HETATM    4  C   UNL     1     -28.578  -4.796 -16.183  1.00  0.00     0.204 C 
HETATM    5  C   UNL     1     -29.568  -4.519 -17.331  1.00  0.00     0.288 C 
HETATM    6  O   UNL     1     -29.172  -5.135 -18.557  1.00  0.00    -0.349 OA
ENDROOT
BRANCH   1   7
HETATM    7  C   UNL     1     -30.311  -7.297 -18.327  1.00  0.00     0.198 C 
BRANCH   7   8
HETATM    8  O   UNL     1     -30.273  -8.521 -19.056  1.00  0.00    -0.398 OA
HETATM    9  H   UNL     1     -30.629  -8.334 -19.952  1.00  0.00     0.209 HD
ENDBRANCH   7   8
ENDBRANCH   1   7
BRANCH   2  10
HETATM   10  O   UNL     1     -26.665  -6.305 -17.771  1.00  0.00    -0.390 OA
HETATM   11  H   UNL     1     -25.958  -6.939 -17.546  1.00  0.00     0.210 HD
ENDBRANCH   2  10
BRANCH   3  12
HETATM   12  O   UNL     1     -27.333  -6.579 -15.085  1.00  0.00    -0.390 OA
HETATM   13  H   UNL     1     -26.504  -6.696 -15.591  1.00  0.00     0.210 HD
ENDBRANCH   3  12
BRANCH   5  14
HETATM   14  O   UNL     1     -29.649  -3.120 -17.563  1.00  0.00    -0.369 OA
HETATM   15  H   UNL     1     -29.889  -3.038 -18.507  1.00  0.00     0.212 HD
ENDBRANCH   5  14
BRANCH   4  16
HETATM   16  O   UNL     1     -27.341  -4.098 -16.456  1.00  0.00    -0.388 OA
HETATM   17  H   UNL     1     -27.411  -3.225 -16.010  1.00  0.00     0.210 HD
ENDBRANCH   4  16
TORSDOF 6
BEGIN_RES ARG D 557
REMARK  4 active torsions:
REMARK  status: ('A' for Active; 'I' for Inactive)
REMARK    1  A    between atoms: CA   and  CB  
REMARK    2  A    between atoms: CB   and  CG  
REMARK    3  A    between atoms: CG   and  CD  
REMARK    4  A    between atoms: CD   and  NE  
REMARK       I    between atoms: NE   and  CZ  
REMARK       I    between atoms: CZ   and  NH1 
REMARK       I    between atoms: CZ   and  NH2 
ROOT
ATOM      1  CA  ARG D 557     -26.217   2.705 -17.014  1.00 35.49     0.159 C 
ENDROOT
BRANCH   1   2
ATOM      2  CB  ARG D 557     -26.789   1.319 -17.183  1.00 35.49     0.034 C 
BRANCH   2   3
ATOM      3  CG  ARG D 557     -25.854   0.196 -17.038  1.00 35.49     0.027 C 
BRANCH   3   4
ATOM      4  CD  ARG D 557     -26.235  -0.715 -15.934  1.00 35.49     0.116 C 
BRANCH   4   5
ATOM      5  NE  ARG D 557     -25.206  -0.813 -14.933  1.00 35.49    -0.212 N 
ATOM      6  CZ  ARG D 557     -24.806  -1.920 -14.348  1.00 35.49     0.666 C 
ATOM      7  NH1 ARG D 557     -25.337  -3.097 -14.620  1.00 35.49    -0.235 N 
ATOM      8  NH2 ARG D 557     -23.844  -1.825 -13.477  1.00 35.49    -0.235 N 
ATOM      9  HH  ARG D 557     -25.970  -3.184 -15.191  1.00 35.49     0.174 HD
ATOM     10  HH  ARG D 557     -25.034  -3.785 -14.209  1.00 35.49     0.174 HD
ATOM     11  HH  ARG D 557     -23.514  -1.052 -13.327  1.00 35.49     0.174 HD
ATOM     12  HH  ARG D 557     -23.556  -2.518 -13.081  1.00 35.49     0.174 HD
ATOM     13  HE  ARG D 557     -24.859  -0.092 -14.645  1.00 35.49     0.178 HD
ENDBRANCH   4   5
ENDBRANCH   3   4
ENDBRANCH   2   3
ENDBRANCH   1   2
END_RES ARG D 557
BEGIN_RES GLU D 570
REMARK  3 active torsions:
REMARK  status: ('A' for Active; 'I' for Inactive)
REMARK    5  A    between atoms: CA   and  CB  
REMARK    6  A    between atoms: CB   and  CG  
REMARK    7  A    between atoms: CG   and  CD  
ROOT
ATOM     14  CA  GLU D 570     -18.033  -6.348 -13.375  1.00 32.92     0.160 C 
ENDROOT
BRANCH  14  15
ATOM     15  CB  GLU D 570     -19.500  -6.345 -13.794  1.00 32.92     0.043 C 
BRANCH  15  16
ATOM     16  CG  GLU D 570     -20.438  -5.513 -12.997  1.00 32.92     0.100 C 
BRANCH  16  17
ATOM     17  CD  GLU D 570     -21.758  -5.281 -13.694  1.00 32.92     0.185 C 
ATOM     18  OE1 GLU D 570     -22.344  -4.193 -13.534  1.00 32.92    -0.647 OA
ATOM     19  OE2 GLU D 570     -22.220  -6.204 -14.393  1.00 32.92    -0.647 OA
ENDBRANCH  16  17
ENDBRANCH  15  16
ENDBRANCH  14  15
END_RES GLU D 570
ENDMDL
MODEL 9
REMARK VINA RESULT:      -5.3      1.317      2.437
REMARK  6 active torsions:
REMARK  status: ('A' for Active; 'I' for Inactive)
REMARK    1  A    between atoms: C_1  and  C_2 
REMARK    2  A    between atoms: C_1  and  O_12 
REMARK    3  A    between atoms: C_3  and  O_11 
REMARK    4  A    between atoms: C_4  and  O_10 
REMARK    5  A    between atoms: C_5  and  O_9 
REMARK    6  A    between atoms: C_6  and  O_8 
ROOT
HETATM    1  C   UNL     1     -23.409  -4.730 -10.544  1.00  0.00     0.179 C 
HETATM    2  C   UNL     1     -22.050  -4.014 -10.567  1.00  0.00     0.180 C 
HETATM    3  C   UNL     1     -22.100  -2.796 -11.502  1.00  0.00     0.183 C 
HETATM    4  C   UNL     1     -22.561  -3.215 -12.905  1.00  0.00     0.204 C 
HETATM    5  C   UNL     1     -23.884  -3.997 -12.802  1.00  0.00     0.288 C 
HETATM    6  O   UNL     1     -23.808  -5.087 -11.883  1.00  0.00    -0.349 OA
ENDROOT
BRANCH   1   7
HETATM    7  C   UNL     1     -24.519  -3.952  -9.826  1.00  0.00     0.198 C 
BRANCH   7   8
HETATM    8  O   UNL     1     -24.139  -3.720  -8.473  1.00  0.00    -0.398 OA
HETATM    9  H   UNL     1     -23.873  -4.586  -8.095  1.00  0.00     0.209 HD
ENDBRANCH   7   8
ENDBRANCH   1   7
BRANCH   2  10
HETATM   10  O   UNL     1     -21.048  -4.915 -11.095  1.00  0.00    -0.390 OA
HETATM   11  H   UNL     1     -20.442  -4.396 -11.657  1.00  0.00     0.210 HD
ENDBRANCH   2  10
BRANCH   3  12
HETATM   12  O   UNL     1     -20.810  -2.183 -11.561  1.00  0.00    -0.390 OA
HETATM   13  H   UNL     1     -20.310  -2.545 -10.802  1.00  0.00     0.210 HD
ENDBRANCH   3  12
BRANCH   5  14
HETATM   14  O   UNL     1     -24.220  -4.533 -14.074  1.00  0.00    -0.369 OA
HETATM   15  H   UNL     1     -24.596  -3.779 -14.570  1.00  0.00     0.212 HD
ENDBRANCH   5  14
BRANCH   4  16
HETATM   16  O   UNL     1     -21.574  -4.052 -13.551  1.00  0.00    -0.388 OA
HETATM   17  H   UNL     1     -21.468  -3.702 -14.463  1.00  0.00     0.210 HD
ENDBRANCH   4  16
TORSDOF 6
BEGIN_RES ARG D 557
REMARK  4 active torsions:
REMARK  status: ('A' for Active; 'I' for Inactive)
REMARK    1  A    between atoms: CA   and  CB  
REMARK    2  A    between atoms: CB   and  CG  
REMARK    3  A    between atoms: CG   and  CD  
REMARK    4  A    between atoms: CD   and  NE  
REMARK       I    between atoms: NE   and  CZ  
REMARK       I    between atoms: CZ   and  NH1 
REMARK       I    between atoms: CZ   and  NH2 
ROOT
ATOM      1  CA  ARG D 557     -26.217   2.705 -17.014  1.00 35.49     0.159 C 
ENDROOT
BRANCH   1   2
ATOM      2  CB  ARG D 557     -26.789   1.319 -17.183  1.00 35.49     0.034 C 
BRANCH   2   3
ATOM      3  CG  ARG D 557     -28.153   1.102 -16.687  1.00 35.49     0.027 C 
BRANCH   3   4
ATOM      4  CD  ARG D 557     -28.791  -0.090 -17.291  1.00 35.49     0.116 C 
BRANCH   4   5
ATOM      5  NE  ARG D 557     -28.176  -1.315 -16.852  1.00 35.49    -0.212 N 
ATOM      6  CZ  ARG D 557     -28.659  -2.524 -17.031  1.00 35.49     0.666 C 
ATOM      7  NH1 ARG D 557     -29.808  -2.745 -17.642  1.00 35.49    -0.235 N 
ATOM      8  NH2 ARG D 557     -27.955  -3.524 -16.585  1.00 35.49    -0.235 N 
ATOM      9  HH  ARG D 557     -30.287  -2.102 -17.945  1.00 35.49     0.174 HD
ATOM     10  HH  ARG D 557     -30.072  -3.555 -17.732  1.00 35.49     0.174 HD
ATOM     11  HH  ARG D 557     -27.213  -3.351 -16.201  1.00 35.49     0.174 HD
ATOM     12  HH  ARG D 557     -28.232  -4.319 -16.685  1.00 35.49     0.174 HD
ATOM     13  HE  ARG D 557     -27.467  -1.261 -16.386  1.00 35.49     0.178 HD
ENDBRANCH   4   5
ENDBRANCH   3   4
ENDBRANCH   2   3
ENDBRANCH   1   2
END_RES ARG D 557
BEGIN_RES GLU D 570
REMARK  3 active torsions:
REMARK  status: ('A' for Active; 'I' for Inactive)
REMARK    5  A    between atoms: CA   and  CB  
REMARK    6  A    between atoms: CB   and  CG  
REMARK    7  A    between atoms: CG   and  CD  
ROOT
ATOM     14  CA  GLU D 570     -18.033  -6.348 -13.375  1.00 32.92     0.160 C 
ENDROOT
BRANCH  14  15
ATOM     15  CB  GLU D 570     -19.500  -6.345 -13.794  1.00 32.92     0.043 C 
BRANCH  15  16
ATOM     16  CG  GLU D 570     -20.052  -7.601 -14.364  1.00 32.92     0.100 C 
BRANCH  16  17
ATOM     17  CD  GLU D 570     -21.236  -7.366 -15.273  1.00 32.92     0.185 C 
ATOM     18  OE1 GLU D 570     -22.147  -6.604 -14.895  1.00 32.92    -0.647 OA
ATOM     19  OE2 GLU D 570     -21.261  -7.963 -16.367  1.00 32.92    -0.647 OA
ENDBRANCH  16  17
ENDBRANCH  15  16
ENDBRANCH  14  15
END_RES GLU D 570
ENDMDL
