MODEL 1
REMARK VINA RESULT:      -8.1      0.000      0.000
REMARK WARNING: 32 MAX_TORS EXCEEDED!!!
REMARK  35 active torsions:
REMARK  status: ('A' for Active; 'I' for Inactive)
REMARK    1  A    between atoms: C_2  and  C_4 
REMARK    2  A    between atoms: C_4  and  C_5 
REMARK    3  A    between atoms: C_4  and  N_8 
REMARK       I    between atoms: C_5  and  N_7 
REMARK       I    between atoms: N_8  and  C_9 
REMARK    4  A    between atoms: C_9  and  C_11 
REMARK       I    between atoms: N_15  and  C_16 
REMARK    5  A    between atoms: C_16  and  C_18 
REMARK    6  A    between atoms: C_18  and  C_19 
REMARK    7  A    between atoms: C_18  and  N_24 
REMARK    8  A    between atoms: C_19  and  C_20 
REMARK    9  A    between atoms: C_20  and  C_21 
REMARK   10  A    between atoms: C_21  and  C_22 
REMARK   11  A    between atoms: C_22  and  N_23 
REMARK       I    between atoms: N_24  and  C_25 
REMARK   12  A    between atoms: C_25  and  C_27 
REMARK   13  A    between atoms: C_27  and  C_28 
REMARK   14  A    between atoms: C_27  and  N_35 
REMARK   15  A    between atoms: C_28  and  C_29 
REMARK       I    between atoms: N_35  and  C_36 
REMARK   16  A    between atoms: C_36  and  C_38 
REMARK   17  A    between atoms: C_38  and  C_39 
REMARK   18  A    between atoms: C_38  and  N_49 
REMARK   19  A    between atoms: C_39  and  C_40 
REMARK       I    between atoms: N_49  and  C_50 
REMARK   20  A    between atoms: C_50  and  C_52 
REMARK   21  A    between atoms: C_52  and  C_53 
REMARK   22  A    between atoms: C_52  and  N_61 
REMARK   23  A    between atoms: C_53  and  C_54 
REMARK   24  A    between atoms: C_54  and  C_55 
REMARK   25  A    between atoms: C_55  and  N_56 
REMARK       I    between atoms: C_58  and  N_59 
REMARK       I    between atoms: C_58  and  N_60 
REMARK       I    between atoms: N_61  and  C_62 
REMARK   26  A    between atoms: C_62  and  C_64 
REMARK   27  A    between atoms: C_64  and  C_65 
REMARK   28  A    between atoms: C_64  and  N_72 
REMARK   29  A    between atoms: C_65  and  C_66 
REMARK       I    between atoms: N_72  and  C_73 
REMARK   30  A    between atoms: C_73  and  C_75 
REMARK       I    between atoms: N_79  and  C_80 
REMARK   31  A    between atoms: C_80  and  C_82 
REMARK   32  A    between atoms: C_82  and  C_83 
REMARK   33  A    between atoms: C_82  and  N_87 
REMARK   34  A    between atoms: C_83  and  C_84 
REMARK   35  A    between atoms: C_84  and  S_85 
ROOT
HETATM    1  C   UNL     1     -21.328 -11.254  -0.932  1.00  0.00     0.181 C 
ENDROOT
BRANCH   1   2
HETATM    2  C   UNL     1     -20.978 -10.748  -2.393  1.00  0.00     0.241 C 
HETATM    3  N   UNL     1     -21.861 -11.010  -3.425  1.00  0.00    -0.346 N 
HETATM    4  H   UNL     1     -22.672 -11.591  -3.251  1.00  0.00     0.163 HD
HETATM    5  O   UNL     1     -19.921 -10.144  -2.606  1.00  0.00    -0.271 OA
BRANCH   3   6
HETATM    6  C   UNL     1     -21.601 -10.676  -4.853  1.00  0.00     0.180 C 
BRANCH   6   7
HETATM    7  C   UNL     1     -21.090  -9.185  -5.090  1.00  0.00     0.241 C 
HETATM    8  N   UNL     1     -21.890  -8.167  -4.555  1.00  0.00    -0.346 N 
HETATM    9  H   UNL     1     -22.788  -8.427  -4.170  1.00  0.00     0.163 HD
HETATM   10  O   UNL     1     -20.005  -8.988  -5.639  1.00  0.00    -0.271 OA
BRANCH   8  11
HETATM   11  C   UNL     1     -21.509  -6.729  -4.407  1.00  0.00     0.176 C 
BRANCH  11  12
HETATM   12  C   UNL     1     -21.769  -5.955  -5.698  1.00  0.00     0.243 C 
HETATM   13  N   UNL     1     -20.747  -5.365  -6.412  1.00  0.00    -0.337 N 
HETATM   14  C   UNL     1     -20.969  -4.096  -7.179  1.00  0.00     0.179 C 
HETATM   15  C   UNL     1     -19.323  -5.616  -6.273  1.00  0.00     0.127 C 
HETATM   16  C   UNL     1     -19.727  -4.044  -8.053  1.00  0.00     0.037 C 
HETATM   17  C   UNL     1     -18.616  -4.584  -7.162  1.00  0.00     0.022 C 
HETATM   18  O   UNL     1     -22.959  -5.677  -5.931  1.00  0.00    -0.271 OA
BRANCH  14  19
HETATM   19  C   UNL     1     -22.267  -3.976  -7.977  1.00  0.00     0.241 C 
HETATM   20  N   UNL     1     -22.106  -3.785  -9.352  1.00  0.00    -0.346 N 
HETATM   21  H   UNL     1     -21.232  -3.345  -9.621  1.00  0.00     0.163 HD
HETATM   22  O   UNL     1     -23.369  -4.042  -7.421  1.00  0.00    -0.271 OA
BRANCH  20  23
HETATM   23  C   UNL     1     -23.267  -3.466 -10.184  1.00  0.00     0.179 C 
BRANCH  23  24
HETATM   24  C   UNL     1     -22.995  -2.885 -11.594  1.00  0.00     0.009 C 
HETATM   25  C   UNL     1     -21.765  -3.525 -12.247  1.00  0.00     0.012 C 
HETATM   26  C   UNL     1     -24.128  -2.894 -12.621  1.00  0.00     0.012 C 
ENDBRANCH  23  24
BRANCH  23  27
HETATM   27  C   UNL     1     -24.203  -4.712 -10.189  1.00  0.00     0.238 C 
HETATM   28  O   UNL     1     -23.937  -5.804 -10.677  1.00  0.00    -0.271 OA
HETATM   29  N   UNL     1     -25.413  -4.516  -9.589  1.00  0.00    -0.368 N 
HETATM   30  H   UNL     1     -25.656  -3.609  -9.186  1.00  0.00     0.159 HD
HETATM   31  H   UNL     1     -26.086  -5.266  -9.556  1.00  0.00     0.159 HD
ENDBRANCH  23  27
ENDBRANCH  20  23
ENDBRANCH  14  19
ENDBRANCH  11  12
BRANCH  11  32
HETATM   32  C   UNL     1     -22.418  -6.029  -3.323  1.00  0.00     0.035 C 
BRANCH  32  33
HETATM   33  C   UNL     1     -21.917  -6.177  -1.852  1.00  0.00     0.004 C 
BRANCH  33  34
HETATM   34  C   UNL     1     -22.038  -7.573  -1.223  1.00  0.00     0.030 C 
BRANCH  34  35
HETATM   35  C   UNL     1     -22.299  -7.537   0.300  1.00  0.00     0.267 C 
BRANCH  35  36
HETATM   36  N   UNL     1     -23.572  -8.156   0.690  1.00  0.00     0.078 N 
HETATM   37  H   UNL     1     -24.171  -8.236  -0.130  1.00  0.00     0.312 HD
HETATM   38  H   UNL     1     -24.066  -7.512   1.315  1.00  0.00     0.312 HD
ENDBRANCH  35  36
ENDBRANCH  34  35
ENDBRANCH  33  34
ENDBRANCH  32  33
ENDBRANCH  11  32
ENDBRANCH   8  11
ENDBRANCH   6   7
BRANCH   6  39
HETATM   39  C   UNL     1     -20.747 -11.767  -5.540  1.00  0.00     0.073 C 
BRANCH  39  40
HETATM   40  C   UNL     1     -21.372 -13.078  -5.995  1.00  0.00    -0.056 A 
HETATM   41  C   UNL     1     -20.642 -14.218  -6.348  1.00  0.00     0.007 A 
HETATM   42  C   UNL     1     -21.291 -15.420  -6.655  1.00  0.00     0.001 A 
HETATM   43  C   UNL     1     -22.679 -15.500  -6.624  1.00  0.00     0.000 A 
HETATM   44  C   UNL     1     -23.426 -14.365  -6.327  1.00  0.00     0.001 A 
HETATM   45  C   UNL     1     -22.779 -13.163  -6.031  1.00  0.00     0.007 A 
ENDBRANCH  39  40
ENDBRANCH   6  39
ENDBRANCH   3   6
ENDBRANCH   1   2
BRANCH   1  46
HETATM   46  C   UNL     1     -22.827 -11.420  -0.642  1.00  0.00     0.075 C 
BRANCH  46  47
HETATM   47  C   UNL     1     -23.218 -12.818  -0.264  1.00  0.00    -0.028 C 
HETATM   48  C   UNL     1     -23.414 -13.310   1.018  1.00  0.00     0.096 C 
HETATM   49  N   UNL     1     -23.804 -14.611   0.877  1.00  0.00    -0.365 N 
HETATM   50  C   UNL     1     -23.223 -15.048  -0.288  1.00  0.00     0.042 C 
HETATM   51  H   UNL     1     -24.735 -14.896   1.141  1.00  0.00     0.165 HD
HETATM   52  C   UNL     1     -22.651 -16.263  -0.638  1.00  0.00     0.030 C 
HETATM   53  C   UNL     1     -23.256 -13.949  -1.137  1.00  0.00    -0.002 C 
HETATM   54  C   UNL     1     -22.255 -16.387  -1.969  1.00  0.00     0.002 C 
HETATM   55  C   UNL     1     -22.561 -15.399  -2.909  1.00  0.00     0.001 C 
HETATM   56  C   UNL     1     -23.081 -14.161  -2.513  1.00  0.00     0.014 C 
ENDBRANCH  46  47
ENDBRANCH   1  46
BRANCH   1  57
HETATM   57  N   UNL     1     -20.559 -12.500  -0.739  1.00  0.00    -0.346 N 
HETATM   58  C   UNL     1     -19.351 -12.602  -0.090  1.00  0.00     0.241 C 
HETATM   59  O   UNL     1     -18.732 -11.645   0.382  1.00  0.00    -0.271 OA
HETATM   60  H   UNL     1     -20.794 -13.231  -1.403  1.00  0.00     0.163 HD
BRANCH  58  61
HETATM   61  C   UNL     1     -18.749 -14.023   0.038  1.00  0.00     0.176 C 
BRANCH  61  62
HETATM   62  C   UNL     1     -18.562 -14.804  -1.280  1.00  0.00     0.036 C 
BRANCH  62  63
HETATM   63  C   UNL     1     -18.633 -13.944  -2.539  1.00  0.00     0.022 C 
BRANCH  63  64
HETATM   64  C   UNL     1     -17.259 -13.443  -2.960  1.00  0.00     0.121 C 
BRANCH  64  65
HETATM   65  N   UNL     1     -17.361 -12.022  -3.249  1.00  0.00    -0.372 N 
HETATM   66  C   UNL     1     -16.813 -11.222  -2.421  1.00  0.00     0.121 C 
HETATM   67  N   UNL     1     -16.172 -11.468  -1.261  1.00  0.00    -0.279 NA
HETATM   68  N   UNL     1     -16.852  -9.887  -2.655  1.00  0.00    -0.279 NA
HETATM   69  H   UNL     1     -15.944 -12.441  -1.113  1.00  0.00     0.126 HD
HETATM   70  H   UNL     1     -15.357 -10.879  -1.134  1.00  0.00     0.126 HD
HETATM   71  H   UNL     1     -17.541  -9.686  -3.375  1.00  0.00     0.126 HD
HETATM   72  H   UNL     1     -17.024  -9.338  -1.822  1.00  0.00     0.126 HD
ATOM     73  HN  UNL     1     -17.849 -11.681  -4.078  1.00  0.00     0.161 HD
ENDBRANCH  64  65
ENDBRANCH  63  64
ENDBRANCH  62  63
ENDBRANCH  61  62
BRANCH  61  74
HETATM   74  N   UNL     1     -17.538 -13.840   0.844  1.00  0.00    -0.346 N 
HETATM   75  C   UNL     1     -17.297 -14.783   1.819  1.00  0.00     0.241 C 
HETATM   76  O   UNL     1     -18.188 -15.589   2.091  1.00  0.00    -0.271 OA
HETATM   77  H   UNL     1     -16.760 -13.363   0.407  1.00  0.00     0.163 HD
BRANCH  75  78
HETATM   78  C   UNL     1     -15.916 -14.874   2.509  1.00  0.00     0.180 C 
BRANCH  78  79
HETATM   79  C   UNL     1     -15.745 -15.947   3.613  1.00  0.00     0.073 C 
BRANCH  79  80
HETATM   80  C   UNL     1     -14.566 -15.923   4.567  1.00  0.00    -0.056 A 
HETATM   81  C   UNL     1     -13.242 -16.123   4.165  1.00  0.00     0.007 A 
HETATM   82  C   UNL     1     -12.190 -16.031   5.078  1.00  0.00     0.001 A 
HETATM   83  C   UNL     1     -12.444 -15.737   6.415  1.00  0.00     0.000 A 
HETATM   84  C   UNL     1     -13.756 -15.583   6.850  1.00  0.00     0.001 A 
HETATM   85  C   UNL     1     -14.810 -15.690   5.936  1.00  0.00     0.007 A 
ENDBRANCH  79  80
ENDBRANCH  78  79
BRANCH  78  86
HETATM   86  N   UNL     1     -14.874 -14.915   1.454  1.00  0.00    -0.346 N 
HETATM   87  C   UNL     1     -14.476 -13.722   0.835  1.00  0.00     0.241 C 
HETATM   88  O   UNL     1     -14.763 -12.615   1.291  1.00  0.00    -0.271 OA
HETATM   89  H   UNL     1     -14.779 -15.772   0.926  1.00  0.00     0.163 HD
BRANCH  87  90
HETATM   90  C   UNL     1     -13.543 -13.881  -0.398  1.00  0.00     0.179 C 
HETATM   91  C   UNL     1     -14.201 -14.970  -1.270  1.00  0.00     0.037 C 
HETATM   92  C   UNL     1     -13.083 -15.513  -2.143  1.00  0.00     0.022 C 
HETATM   93  C   UNL     1     -11.835 -15.336  -1.298  1.00  0.00     0.127 C 
HETATM   94  N   UNL     1     -12.212 -14.470  -0.185  1.00  0.00    -0.337 N 
HETATM   95  C   UNL     1     -11.287 -14.003   0.749  1.00  0.00     0.253 C 
HETATM   96  O   UNL     1     -11.448 -12.948   1.360  1.00  0.00    -0.271 OA
BRANCH  95  97
HETATM   97  C   UNL     1     -10.038 -14.934   0.970  1.00  0.00     0.309 C 
BRANCH  97  98
HETATM   98  C   UNL     1      -8.833 -14.285   1.686  1.00  0.00     0.055 C 
BRANCH  98  99
HETATM   99  C   UNL     1      -9.082 -13.864   3.163  1.00  0.00     0.076 C 
BRANCH  99 100
HETATM  100  S   UNL     1      -8.080 -14.785   4.399  1.00  0.00    -0.173 SA
HETATM  101  C   UNL     1      -8.700 -14.132   5.966  1.00  0.00     0.089 C 
ENDBRANCH  99 100
ENDBRANCH  98  99
ENDBRANCH  97  98
BRANCH  97 102
HETATM  102  N   UNL     1     -10.494 -16.117   1.737  1.00  0.00     0.092 N 
HETATM  103  H   UNL     1      -9.922 -16.916   1.452  1.00  0.00     0.313 HD
HETATM  104  H   UNL     1     -11.441 -16.353   1.424  1.00  0.00     0.313 HD
ENDBRANCH  97 102
ENDBRANCH  95  97
ENDBRANCH  87  90
ENDBRANCH  78  86
ENDBRANCH  75  78
ENDBRANCH  61  74
ENDBRANCH  58  61
ENDBRANCH   1  57
TORSDOF 35
BEGIN_RES ARG D 557
REMARK  4 active torsions:
REMARK  status: ('A' for Active; 'I' for Inactive)
REMARK    1  A    between atoms: CA   and  CB  
REMARK    2  A    between atoms: CB   and  CG  
REMARK    3  A    between atoms: CG   and  CD  
REMARK    4  A    between atoms: CD   and  NE  
REMARK       I    between atoms: NE   and  CZ  
REMARK       I    between atoms: CZ   and  NH1 
REMARK       I    between atoms: CZ   and  NH2 
ROOT
ATOM      1  CA  ARG D 557     -26.217   2.705 -17.014  1.00 35.49     0.159 C 
ENDROOT
BRANCH   1   2
ATOM      2  CB  ARG D 557     -26.789   1.319 -17.183  1.00 35.49     0.034 C 
BRANCH   2   3
ATOM      3  CG  ARG D 557     -28.232   1.168 -16.959  1.00 35.49     0.027 C 
BRANCH   3   4
ATOM      4  CD  ARG D 557     -28.629  -0.246 -16.772  1.00 35.49     0.116 C 
BRANCH   4   5
ATOM      5  NE  ARG D 557     -27.629  -1.001 -16.064  1.00 35.49    -0.212 N 
ATOM      6  CZ  ARG D 557     -27.466  -2.304 -16.121  1.00 35.49     0.666 C 
ATOM      7  NH1 ARG D 557     -28.242  -3.084 -16.851  1.00 35.49    -0.235 N 
ATOM      8  NH2 ARG D 557     -26.492  -2.819 -15.428  1.00 35.49    -0.235 N 
ATOM      9  HH  ARG D 557     -28.888  -2.767 -17.317  1.00 35.49     0.174 HD
ATOM     10  HH  ARG D 557     -28.087  -3.927 -16.852  1.00 35.49     0.174 HD
ATOM     11  HH  ARG D 557     -26.003  -2.290 -14.972  1.00 35.49     0.174 HD
ATOM     12  HH  ARG D 557     -26.354  -3.655 -15.443  1.00 35.49     0.174 HD
ATOM     13  HE  ARG D 557     -27.131  -0.587 -15.513  1.00 35.49     0.178 HD
ENDBRANCH   4   5
ENDBRANCH   3   4
ENDBRANCH   2   3
ENDBRANCH   1   2
END_RES ARG D 557
BEGIN_RES GLU D 570
REMARK  3 active torsions:
REMARK  status: ('A' for Active; 'I' for Inactive)
REMARK    5  A    between atoms: CA   and  CB  
REMARK    6  A    between atoms: CB   and  CG  
REMARK    7  A    between atoms: CG   and  CD  
ROOT
ATOM     14  CA  GLU D 570     -18.033  -6.348 -13.375  1.00 32.92     0.160 C 
ENDROOT
BRANCH  14  15
ATOM     15  CB  GLU D 570     -19.500  -6.345 -13.794  1.00 32.92     0.043 C 
BRANCH  15  16
ATOM     16  CG  GLU D 570     -19.797  -6.252 -15.247  1.00 32.92     0.100 C 
BRANCH  16  17
ATOM     17  CD  GLU D 570     -21.252  -5.965 -15.534  1.00 32.92     0.185 C 
ATOM     18  OE1 GLU D 570     -22.069  -6.906 -15.515  1.00 32.92    -0.647 OA
ATOM     19  OE2 GLU D 570     -21.576  -4.790 -15.797  1.00 32.92    -0.647 OA
ENDBRANCH  16  17
ENDBRANCH  15  16
ENDBRANCH  14  15
END_RES GLU D 570
ENDMDL
MODEL 2
REMARK VINA RESULT:      -7.8      2.589      4.365
REMARK WARNING: 32 MAX_TORS EXCEEDED!!!
REMARK  35 active torsions:
REMARK  status: ('A' for Active; 'I' for Inactive)
REMARK    1  A    between atoms: C_2  and  C_4 
REMARK    2  A    between atoms: C_4  and  C_5 
REMARK    3  A    between atoms: C_4  and  N_8 
REMARK       I    between atoms: C_5  and  N_7 
REMARK       I    between atoms: N_8  and  C_9 
REMARK    4  A    between atoms: C_9  and  C_11 
REMARK       I    between atoms: N_15  and  C_16 
REMARK    5  A    between atoms: C_16  and  C_18 
REMARK    6  A    between atoms: C_18  and  C_19 
REMARK    7  A    between atoms: C_18  and  N_24 
REMARK    8  A    between atoms: C_19  and  C_20 
REMARK    9  A    between atoms: C_20  and  C_21 
REMARK   10  A    between atoms: C_21  and  C_22 
REMARK   11  A    between atoms: C_22  and  N_23 
REMARK       I    between atoms: N_24  and  C_25 
REMARK   12  A    between atoms: C_25  and  C_27 
REMARK   13  A    between atoms: C_27  and  C_28 
REMARK   14  A    between atoms: C_27  and  N_35 
REMARK   15  A    between atoms: C_28  and  C_29 
REMARK       I    between atoms: N_35  and  C_36 
REMARK   16  A    between atoms: C_36  and  C_38 
REMARK   17  A    between atoms: C_38  and  C_39 
REMARK   18  A    between atoms: C_38  and  N_49 
REMARK   19  A    between atoms: C_39  and  C_40 
REMARK       I    between atoms: N_49  and  C_50 
REMARK   20  A    between atoms: C_50  and  C_52 
REMARK   21  A    between atoms: C_52  and  C_53 
REMARK   22  A    between atoms: C_52  and  N_61 
REMARK   23  A    between atoms: C_53  and  C_54 
REMARK   24  A    between atoms: C_54  and  C_55 
REMARK   25  A    between atoms: C_55  and  N_56 
REMARK       I    between atoms: C_58  and  N_59 
REMARK       I    between atoms: C_58  and  N_60 
REMARK       I    between atoms: N_61  and  C_62 
REMARK   26  A    between atoms: C_62  and  C_64 
REMARK   27  A    between atoms: C_64  and  C_65 
REMARK   28  A    between atoms: C_64  and  N_72 
REMARK   29  A    between atoms: C_65  and  C_66 
REMARK       I    between atoms: N_72  and  C_73 
REMARK   30  A    between atoms: C_73  and  C_75 
REMARK       I    between atoms: N_79  and  C_80 
REMARK   31  A    between atoms: C_80  and  C_82 
REMARK   32  A    between atoms: C_82  and  C_83 
REMARK   33  A    between atoms: C_82  and  N_87 
REMARK   34  A    between atoms: C_83  and  C_84 
REMARK   35  A    between atoms: C_84  and  S_85 
ROOT
HETATM    1  C   UNL     1     -21.438 -11.406  -0.881  1.00  0.00     0.181 C 
ENDROOT
BRANCH   1   2
HETATM    2  C   UNL     1     -21.070 -10.966  -2.358  1.00  0.00     0.241 C 
HETATM    3  N   UNL     1     -22.049 -11.002  -3.335  1.00  0.00    -0.346 N 
HETATM    4  H   UNL     1     -22.959 -11.388  -3.114  1.00  0.00     0.163 HD
HETATM    5  O   UNL     1     -19.918 -10.613  -2.634  1.00  0.00    -0.271 OA
BRANCH   3   6
HETATM    6  C   UNL     1     -21.806 -10.711  -4.775  1.00  0.00     0.180 C 
BRANCH   6   7
HETATM    7  C   UNL     1     -21.253  -9.242  -5.057  1.00  0.00     0.241 C 
HETATM    8  N   UNL     1     -21.964  -8.192  -4.462  1.00  0.00    -0.346 N 
HETATM    9  H   UNL     1     -22.838  -8.414  -4.005  1.00  0.00     0.163 HD
HETATM   10  O   UNL     1     -20.210  -9.091  -5.693  1.00  0.00    -0.271 OA
BRANCH   8  11
HETATM   11  C   UNL     1     -21.512  -6.771  -4.349  1.00  0.00     0.176 C 
BRANCH  11  12
HETATM   12  C   UNL     1     -21.788  -6.002  -5.639  1.00  0.00     0.243 C 
HETATM   13  N   UNL     1     -20.774  -5.432  -6.379  1.00  0.00    -0.337 N 
HETATM   14  C   UNL     1     -20.993  -4.165  -7.150  1.00  0.00     0.179 C 
HETATM   15  C   UNL     1     -19.351  -5.704  -6.270  1.00  0.00     0.127 C 
HETATM   16  C   UNL     1     -19.770  -4.137  -8.052  1.00  0.00     0.037 C 
HETATM   17  C   UNL     1     -18.649  -4.688  -7.181  1.00  0.00     0.022 C 
HETATM   18  O   UNL     1     -22.979  -5.708  -5.848  1.00  0.00    -0.271 OA
BRANCH  14  19
HETATM   19  C   UNL     1     -22.307  -4.030  -7.920  1.00  0.00     0.241 C 
HETATM   20  N   UNL     1     -22.173  -3.867  -9.301  1.00  0.00    -0.346 N 
HETATM   21  H   UNL     1     -21.297  -3.450  -9.598  1.00  0.00     0.163 HD
HETATM   22  O   UNL     1     -23.397  -4.062  -7.338  1.00  0.00    -0.271 OA
BRANCH  20  23
HETATM   23  C   UNL     1     -23.346  -3.536 -10.113  1.00  0.00     0.179 C 
BRANCH  23  24
HETATM   24  C   UNL     1     -23.098  -2.847 -11.477  1.00  0.00     0.009 C 
HETATM   25  C   UNL     1     -21.805  -3.338 -12.137  1.00  0.00     0.012 C 
HETATM   26  C   UNL     1     -24.206  -2.888 -12.531  1.00  0.00     0.012 C 
ENDBRANCH  23  24
BRANCH  23  27
HETATM   27  C   UNL     1     -24.231  -4.815 -10.208  1.00  0.00     0.238 C 
HETATM   28  O   UNL     1     -23.947  -5.839 -10.819  1.00  0.00    -0.271 OA
HETATM   29  N   UNL     1     -25.418  -4.736  -9.537  1.00  0.00    -0.368 N 
HETATM   30  H   UNL     1     -25.677  -3.887  -9.032  1.00  0.00     0.159 HD
HETATM   31  H   UNL     1     -26.059  -5.515  -9.554  1.00  0.00     0.159 HD
ENDBRANCH  23  27
ENDBRANCH  20  23
ENDBRANCH  14  19
ENDBRANCH  11  12
BRANCH  11  32
HETATM   32  C   UNL     1     -22.343  -6.017  -3.240  1.00  0.00     0.035 C 
BRANCH  32  33
HETATM   33  C   UNL     1     -21.855  -6.257  -1.776  1.00  0.00     0.004 C 
BRANCH  33  34
HETATM   34  C   UNL     1     -21.974  -7.692  -1.240  1.00  0.00     0.030 C 
BRANCH  34  35
HETATM   35  C   UNL     1     -22.175  -7.758   0.291  1.00  0.00     0.267 C 
BRANCH  35  36
HETATM   36  N   UNL     1     -23.553  -8.067   0.688  1.00  0.00     0.078 N 
HETATM   37  H   UNL     1     -24.157  -7.281   0.448  1.00  0.00     0.312 HD
HETATM   38  H   UNL     1     -23.590  -8.124   1.710  1.00  0.00     0.312 HD
ENDBRANCH  35  36
ENDBRANCH  34  35
ENDBRANCH  33  34
ENDBRANCH  32  33
ENDBRANCH  11  32
ENDBRANCH   8  11
ENDBRANCH   6   7
BRANCH   6  39
HETATM   39  C   UNL     1     -20.999 -11.844  -5.451  1.00  0.00     0.073 C 
BRANCH  39  40
HETATM   40  C   UNL     1     -21.685 -13.117  -5.924  1.00  0.00    -0.056 A 
HETATM   41  C   UNL     1     -21.013 -14.222  -6.456  1.00  0.00     0.007 A 
HETATM   42  C   UNL     1     -21.703 -15.399  -6.773  1.00  0.00     0.001 A 
HETATM   43  C   UNL     1     -23.077 -15.486  -6.572  1.00  0.00     0.000 A 
HETATM   44  C   UNL     1     -23.773 -14.381  -6.094  1.00  0.00     0.001 A 
HETATM   45  C   UNL     1     -23.085 -13.204  -5.788  1.00  0.00     0.007 A 
ENDBRANCH  39  40
ENDBRANCH   6  39
ENDBRANCH   3   6
ENDBRANCH   1   2
BRANCH   1  46
HETATM   46  C   UNL     1     -22.939 -11.578  -0.607  1.00  0.00     0.075 C 
BRANCH  46  47
HETATM   47  C   UNL     1     -23.286 -12.870   0.072  1.00  0.00    -0.028 C 
HETATM   48  C   UNL     1     -22.971 -13.238   1.372  1.00  0.00     0.096 C 
HETATM   49  N   UNL     1     -23.526 -14.470   1.569  1.00  0.00    -0.365 N 
HETATM   50  C   UNL     1     -23.549 -15.069   0.334  1.00  0.00     0.042 C 
HETATM   51  H   UNL     1     -24.281 -14.589   2.227  1.00  0.00     0.165 HD
HETATM   52  C   UNL     1     -23.320 -16.378  -0.064  1.00  0.00     0.030 C 
HETATM   53  C   UNL     1     -23.818 -14.038  -0.558  1.00  0.00    -0.002 C 
HETATM   54  C   UNL     1     -23.545 -16.652  -1.413  1.00  0.00     0.002 C 
HETATM   55  C   UNL     1     -24.111 -15.694  -2.260  1.00  0.00     0.001 C 
HETATM   56  C   UNL     1     -24.270 -14.366  -1.845  1.00  0.00     0.014 C 
ENDBRANCH  46  47
ENDBRANCH   1  46
BRANCH   1  57
HETATM   57  N   UNL     1     -20.656 -12.630  -0.615  1.00  0.00    -0.346 N 
HETATM   58  C   UNL     1     -20.520 -13.694  -1.475  1.00  0.00     0.241 C 
HETATM   59  O   UNL     1     -21.075 -13.776  -2.573  1.00  0.00    -0.271 OA
HETATM   60  H   UNL     1     -20.497 -12.806   0.372  1.00  0.00     0.163 HD
BRANCH  58  61
HETATM   61  C   UNL     1     -19.607 -14.854  -1.005  1.00  0.00     0.176 C 
BRANCH  61  62
HETATM   62  C   UNL     1     -19.718 -16.172  -1.800  1.00  0.00     0.036 C 
BRANCH  62  63
HETATM   63  C   UNL     1     -18.379 -16.773  -2.216  1.00  0.00     0.022 C 
BRANCH  63  64
HETATM   64  C   UNL     1     -18.011 -16.402  -3.646  1.00  0.00     0.121 C 
BRANCH  64  65
HETATM   65  N   UNL     1     -16.592 -16.651  -3.831  1.00  0.00    -0.372 N 
HETATM   66  C   UNL     1     -16.089 -16.321  -4.956  1.00  0.00     0.121 C 
HETATM   67  N   UNL     1     -16.671 -15.806  -6.058  1.00  0.00    -0.279 NA
HETATM   68  N   UNL     1     -14.762 -16.504  -5.175  1.00  0.00    -0.279 NA
HETATM   69  H   UNL     1     -17.613 -15.474  -5.909  1.00  0.00     0.126 HD
HETATM   70  H   UNL     1     -16.100 -15.098  -6.504  1.00  0.00     0.126 HD
HETATM   71  H   UNL     1     -14.379 -17.116  -4.459  1.00  0.00     0.126 HD
HETATM   72  H   UNL     1     -14.552 -16.850  -6.102  1.00  0.00     0.126 HD
ATOM     73  HN  UNL     1     -16.024 -17.070  -3.095  1.00  0.00     0.161 HD
ENDBRANCH  64  65
ENDBRANCH  63  64
ENDBRANCH  62  63
ENDBRANCH  61  62
BRANCH  61  74
HETATM   74  N   UNL     1     -18.265 -14.265  -0.938  1.00  0.00    -0.346 N 
HETATM   75  C   UNL     1     -17.561 -14.464   0.229  1.00  0.00     0.241 C 
HETATM   76  O   UNL     1     -18.154 -14.934   1.201  1.00  0.00    -0.271 OA
HETATM   77  H   UNL     1     -17.766 -14.154  -1.811  1.00  0.00     0.163 HD
BRANCH  75  78
HETATM   78  C   UNL     1     -16.045 -14.169   0.298  1.00  0.00     0.180 C 
BRANCH  78  79
HETATM   79  C   UNL     1     -15.231 -14.900   1.395  1.00  0.00     0.073 C 
BRANCH  79  80
HETATM   80  C   UNL     1     -13.724 -15.048   1.299  1.00  0.00    -0.056 A 
HETATM   81  C   UNL     1     -13.060 -16.274   1.399  1.00  0.00     0.007 A 
HETATM   82  C   UNL     1     -11.675 -16.357   1.243  1.00  0.00     0.001 A 
HETATM   83  C   UNL     1     -10.927 -15.213   0.984  1.00  0.00     0.000 A 
HETATM   84  C   UNL     1     -11.557 -13.974   0.930  1.00  0.00     0.001 A 
HETATM   85  C   UNL     1     -12.944 -13.890   1.100  1.00  0.00     0.007 A 
ENDBRANCH  79  80
ENDBRANCH  78  79
BRANCH  78  86
HETATM   86  N   UNL     1     -15.484 -14.305  -1.068  1.00  0.00    -0.346 N 
HETATM   87  C   UNL     1     -15.282 -13.156  -1.845  1.00  0.00     0.241 C 
HETATM   88  O   UNL     1     -15.311 -12.022  -1.365  1.00  0.00    -0.271 OA
HETATM   89  H   UNL     1     -15.646 -15.177  -1.553  1.00  0.00     0.163 HD
BRANCH  87  90
HETATM   90  C   UNL     1     -14.896 -13.406  -3.330  1.00  0.00     0.179 C 
HETATM   91  C   UNL     1     -13.388 -13.096  -3.417  1.00  0.00     0.037 C 
HETATM   92  C   UNL     1     -13.125 -12.803  -4.884  1.00  0.00     0.022 C 
HETATM   93  C   UNL     1     -14.434 -12.222  -5.385  1.00  0.00     0.127 C 
HETATM   94  N   UNL     1     -15.424 -12.482  -4.345  1.00  0.00    -0.337 N 
HETATM   95  C   UNL     1     -16.776 -12.179  -4.503  1.00  0.00     0.253 C 
HETATM   96  O   UNL     1     -17.660 -12.792  -3.908  1.00  0.00    -0.271 OA
BRANCH  95  97
HETATM   97  C   UNL     1     -17.079 -10.987  -5.484  1.00  0.00     0.309 C 
BRANCH  97  98
HETATM   98  C   UNL     1     -17.955 -11.328  -6.709  1.00  0.00     0.055 C 
BRANCH  98  99
HETATM   99  C   UNL     1     -17.612 -12.668  -7.423  1.00  0.00     0.076 C 
BRANCH  99 100
HETATM  100  S   UNL     1     -18.568 -12.981  -8.962  1.00  0.00    -0.173 SA
HETATM  101  C   UNL     1     -18.338 -14.756  -9.208  1.00  0.00     0.089 C 
ENDBRANCH  99 100
ENDBRANCH  98  99
ENDBRANCH  97  98
BRANCH  97 102
HETATM  102  N   UNL     1     -17.726  -9.913  -4.694  1.00  0.00     0.092 N 
HETATM  103  H   UNL     1     -18.550 -10.311  -4.237  1.00  0.00     0.313 HD
HETATM  104  H   UNL     1     -18.104  -9.221  -5.349  1.00  0.00     0.313 HD
ENDBRANCH  97 102
ENDBRANCH  95  97
ENDBRANCH  87  90
ENDBRANCH  78  86
ENDBRANCH  75  78
ENDBRANCH  61  74
ENDBRANCH  58  61
ENDBRANCH   1  57
TORSDOF 35
BEGIN_RES ARG D 557
REMARK  4 active torsions:
REMARK  status: ('A' for Active; 'I' for Inactive)
REMARK    1  A    between atoms: CA   and  CB  
REMARK    2  A    between atoms: CB   and  CG  
REMARK    3  A    between atoms: CG   and  CD  
REMARK    4  A    between atoms: CD   and  NE  
REMARK       I    between atoms: NE   and  CZ  
REMARK       I    between atoms: CZ   and  NH1 
REMARK       I    between atoms: CZ   and  NH2 
ROOT
ATOM      1  CA  ARG D 557     -26.217   2.705 -17.014  1.00 35.49     0.159 C 
ENDROOT
BRANCH   1   2
ATOM      2  CB  ARG D 557     -26.789   1.319 -17.183  1.00 35.49     0.034 C 
BRANCH   2   3
ATOM      3  CG  ARG D 557     -28.232   1.226 -17.436  1.00 35.49     0.027 C 
BRANCH   3   4
ATOM      4  CD  ARG D 557     -28.911   0.304 -16.496  1.00 35.49     0.116 C 
BRANCH   4   5
ATOM      5  NE  ARG D 557     -28.132  -0.877 -16.237  1.00 35.49    -0.212 N 
ATOM      6  CZ  ARG D 557     -28.374  -2.078 -16.714  1.00 35.49     0.666 C 
ATOM      7  NH1 ARG D 557     -29.406  -2.334 -17.497  1.00 35.49    -0.235 N 
ATOM      8  NH2 ARG D 557     -27.548  -3.030 -16.391  1.00 35.49    -0.235 N 
ATOM      9  HH  ARG D 557     -29.961  -1.722 -17.724  1.00 35.49     0.174 HD
ATOM     10  HH  ARG D 557     -29.512  -3.136 -17.780  1.00 35.49     0.174 HD
ATOM     11  HH  ARG D 557     -26.887  -2.834 -15.890  1.00 35.49     0.174 HD
ATOM     12  HH  ARG D 557     -27.670  -3.817 -16.683  1.00 35.49     0.174 HD
ATOM     13  HE  ARG D 557     -27.489  -0.818 -15.683  1.00 35.49     0.178 HD
ENDBRANCH   4   5
ENDBRANCH   3   4
ENDBRANCH   2   3
ENDBRANCH   1   2
END_RES ARG D 557
BEGIN_RES GLU D 570
REMARK  3 active torsions:
REMARK  status: ('A' for Active; 'I' for Inactive)
REMARK    5  A    between atoms: CA   and  CB  
REMARK    6  A    between atoms: CB   and  CG  
REMARK    7  A    between atoms: CG   and  CD  
ROOT
ATOM     14  CA  GLU D 570     -18.033  -6.348 -13.375  1.00 32.92     0.160 C 
ENDROOT
BRANCH  14  15
ATOM     15  CB  GLU D 570     -19.500  -6.345 -13.794  1.00 32.92     0.043 C 
BRANCH  15  16
ATOM     16  CG  GLU D 570     -19.796  -6.338 -15.250  1.00 32.92     0.100 C 
BRANCH  16  17
ATOM     17  CD  GLU D 570     -21.239  -6.012 -15.556  1.00 32.92     0.185 C 
ATOM     18  OE1 GLU D 570     -22.097  -6.911 -15.458  1.00 32.92    -0.647 OA
ATOM     19  OE2 GLU D 570     -21.513  -4.850 -15.914  1.00 32.92    -0.647 OA
ENDBRANCH  16  17
ENDBRANCH  15  16
ENDBRANCH  14  15
END_RES GLU D 570
ENDMDL
MODEL 3
REMARK VINA RESULT:      -7.4      2.640      4.313
REMARK WARNING: 32 MAX_TORS EXCEEDED!!!
REMARK  35 active torsions:
REMARK  status: ('A' for Active; 'I' for Inactive)
REMARK    1  A    between atoms: C_2  and  C_4 
REMARK    2  A    between atoms: C_4  and  C_5 
REMARK    3  A    between atoms: C_4  and  N_8 
REMARK       I    between atoms: C_5  and  N_7 
REMARK       I    between atoms: N_8  and  C_9 
REMARK    4  A    between atoms: C_9  and  C_11 
REMARK       I    between atoms: N_15  and  C_16 
REMARK    5  A    between atoms: C_16  and  C_18 
REMARK    6  A    between atoms: C_18  and  C_19 
REMARK    7  A    between atoms: C_18  and  N_24 
REMARK    8  A    between atoms: C_19  and  C_20 
REMARK    9  A    between atoms: C_20  and  C_21 
REMARK   10  A    between atoms: C_21  and  C_22 
REMARK   11  A    between atoms: C_22  and  N_23 
REMARK       I    between atoms: N_24  and  C_25 
REMARK   12  A    between atoms: C_25  and  C_27 
REMARK   13  A    between atoms: C_27  and  C_28 
REMARK   14  A    between atoms: C_27  and  N_35 
REMARK   15  A    between atoms: C_28  and  C_29 
REMARK       I    between atoms: N_35  and  C_36 
REMARK   16  A    between atoms: C_36  and  C_38 
REMARK   17  A    between atoms: C_38  and  C_39 
REMARK   18  A    between atoms: C_38  and  N_49 
REMARK   19  A    between atoms: C_39  and  C_40 
REMARK       I    between atoms: N_49  and  C_50 
REMARK   20  A    between atoms: C_50  and  C_52 
REMARK   21  A    between atoms: C_52  and  C_53 
REMARK   22  A    between atoms: C_52  and  N_61 
REMARK   23  A    between atoms: C_53  and  C_54 
REMARK   24  A    between atoms: C_54  and  C_55 
REMARK   25  A    between atoms: C_55  and  N_56 
REMARK       I    between atoms: C_58  and  N_59 
REMARK       I    between atoms: C_58  and  N_60 
REMARK       I    between atoms: N_61  and  C_62 
REMARK   26  A    between atoms: C_62  and  C_64 
REMARK   27  A    between atoms: C_64  and  C_65 
REMARK   28  A    between atoms: C_64  and  N_72 
REMARK   29  A    between atoms: C_65  and  C_66 
REMARK       I    between atoms: N_72  and  C_73 
REMARK   30  A    between atoms: C_73  and  C_75 
REMARK       I    between atoms: N_79  and  C_80 
REMARK   31  A    between atoms: C_80  and  C_82 
REMARK   32  A    between atoms: C_82  and  C_83 
REMARK   33  A    between atoms: C_82  and  N_87 
REMARK   34  A    between atoms: C_83  and  C_84 
REMARK   35  A    between atoms: C_84  and  S_85 
ROOT
HETATM    1  C   UNL     1     -21.946 -11.348  -1.119  1.00  0.00     0.181 C 
ENDROOT
BRANCH   1   2
HETATM    2  C   UNL     1     -21.108 -10.777  -2.337  1.00  0.00     0.241 C 
HETATM    3  N   UNL     1     -21.571 -10.974  -3.625  1.00  0.00    -0.346 N 
HETATM    4  H   UNL     1     -22.390 -11.550  -3.776  1.00  0.00     0.163 HD
HETATM    5  O   UNL     1     -20.044 -10.180  -2.135  1.00  0.00    -0.271 OA
BRANCH   3   6
HETATM    6  C   UNL     1     -20.828 -10.575  -4.853  1.00  0.00     0.180 C 
BRANCH   6   7
HETATM    7  C   UNL     1     -20.449  -9.028  -4.909  1.00  0.00     0.241 C 
HETATM    8  N   UNL     1     -21.516  -8.128  -4.795  1.00  0.00    -0.346 N 
HETATM    9  H   UNL     1     -22.454  -8.504  -4.810  1.00  0.00     0.163 HD
HETATM   10  O   UNL     1     -19.267  -8.688  -4.963  1.00  0.00    -0.271 OA
BRANCH   8  11
HETATM   11  C   UNL     1     -21.409  -6.656  -4.555  1.00  0.00     0.176 C 
BRANCH  11  12
HETATM   12  C   UNL     1     -21.701  -5.867  -5.829  1.00  0.00     0.243 C 
HETATM   13  N   UNL     1     -20.700  -5.251  -6.551  1.00  0.00    -0.337 N 
HETATM   14  C   UNL     1     -20.954  -3.974  -7.295  1.00  0.00     0.179 C 
HETATM   15  C   UNL     1     -19.270  -5.481  -6.438  1.00  0.00     0.127 C 
HETATM   16  C   UNL     1     -19.727  -3.889  -8.188  1.00  0.00     0.037 C 
HETATM   17  C   UNL     1     -18.594  -4.424  -7.322  1.00  0.00     0.022 C 
HETATM   18  O   UNL     1     -22.899  -5.605  -6.040  1.00  0.00    -0.271 OA
BRANCH  14  19
HETATM   19  C   UNL     1     -22.267  -3.863  -8.070  1.00  0.00     0.241 C 
HETATM   20  N   UNL     1     -22.130  -3.691  -9.451  1.00  0.00    -0.346 N 
HETATM   21  H   UNL     1     -21.261  -3.255  -9.742  1.00  0.00     0.163 HD
HETATM   22  O   UNL     1     -23.358  -3.920  -7.494  1.00  0.00    -0.271 OA
BRANCH  20  23
HETATM   23  C   UNL     1     -23.306  -3.381 -10.266  1.00  0.00     0.179 C 
BRANCH  23  24
HETATM   24  C   UNL     1     -23.060  -2.873 -11.708  1.00  0.00     0.009 C 
HETATM   25  C   UNL     1     -21.862  -3.570 -12.362  1.00  0.00     0.012 C 
HETATM   26  C   UNL     1     -24.220  -2.903 -12.704  1.00  0.00     0.012 C 
ENDBRANCH  23  24
BRANCH  23  27
HETATM   27  C   UNL     1     -24.271  -4.603 -10.188  1.00  0.00     0.238 C 
HETATM   28  O   UNL     1     -24.030  -5.732 -10.598  1.00  0.00    -0.271 OA
HETATM   29  N   UNL     1     -25.477  -4.337  -9.607  1.00  0.00    -0.368 N 
HETATM   30  H   UNL     1     -25.700  -3.400  -9.269  1.00  0.00     0.159 HD
HETATM   31  H   UNL     1     -26.168  -5.068  -9.525  1.00  0.00     0.159 HD
ENDBRANCH  23  27
ENDBRANCH  20  23
ENDBRANCH  14  19
ENDBRANCH  11  12
BRANCH  11  32
HETATM   32  C   UNL     1     -22.508  -6.186  -3.525  1.00  0.00     0.035 C 
BRANCH  32  33
HETATM   33  C   UNL     1     -22.041  -6.154  -2.035  1.00  0.00     0.004 C 
BRANCH  33  34
HETATM   34  C   UNL     1     -22.022  -7.499  -1.293  1.00  0.00     0.030 C 
BRANCH  34  35
HETATM   35  C   UNL     1     -22.535  -7.401   0.162  1.00  0.00     0.267 C 
BRANCH  35  36
HETATM   36  N   UNL     1     -23.619  -8.343   0.465  1.00  0.00     0.078 N 
HETATM   37  H   UNL     1     -23.541  -8.644   1.436  1.00  0.00     0.312 HD
HETATM   38  H   UNL     1     -23.471  -9.193  -0.086  1.00  0.00     0.312 HD
ENDBRANCH  35  36
ENDBRANCH  34  35
ENDBRANCH  33  34
ENDBRANCH  32  33
ENDBRANCH  11  32
ENDBRANCH   8  11
ENDBRANCH   6   7
BRANCH   6  39
HETATM   39  C   UNL     1     -19.652 -11.539  -5.136  1.00  0.00     0.073 C 
BRANCH  39  40
HETATM   40  C   UNL     1     -19.456 -12.147  -6.517  1.00  0.00    -0.056 A 
HETATM   41  C   UNL     1     -18.224 -12.224  -7.175  1.00  0.00     0.007 A 
HETATM   42  C   UNL     1     -18.104 -12.892  -8.400  1.00  0.00     0.001 A 
HETATM   43  C   UNL     1     -19.215 -13.486  -8.991  1.00  0.00     0.000 A 
HETATM   44  C   UNL     1     -20.459 -13.376  -8.379  1.00  0.00     0.001 A 
HETATM   45  C   UNL     1     -20.580 -12.700  -7.162  1.00  0.00     0.007 A 
ENDBRANCH  39  40
ENDBRANCH   6  39
ENDBRANCH   3   6
ENDBRANCH   1   2
BRANCH   1  46
HETATM   46  C   UNL     1     -23.335 -11.893  -1.483  1.00  0.00     0.075 C 
BRANCH  46  47
HETATM   47  C   UNL     1     -23.640 -13.228  -0.870  1.00  0.00    -0.028 C 
HETATM   48  C   UNL     1     -23.673 -13.535   0.482  1.00  0.00     0.096 C 
HETATM   49  N   UNL     1     -24.039 -14.847   0.570  1.00  0.00    -0.365 N 
HETATM   50  C   UNL     1     -23.585 -15.438  -0.582  1.00  0.00     0.042 C 
HETATM   51  H   UNL     1     -24.925 -15.103   0.980  1.00  0.00     0.165 HD
HETATM   52  C   UNL     1     -23.022 -16.684  -0.825  1.00  0.00     0.030 C 
HETATM   53  C   UNL     1     -23.746 -14.472  -1.567  1.00  0.00    -0.002 C 
HETATM   54  C   UNL     1     -22.779 -16.991  -2.163  1.00  0.00     0.002 C 
HETATM   55  C   UNL     1     -23.220 -16.149  -3.189  1.00  0.00     0.001 C 
HETATM   56  C   UNL     1     -23.725 -14.874  -2.911  1.00  0.00     0.014 C 
ENDBRANCH  46  47
ENDBRANCH   1  46
BRANCH   1  57
HETATM   57  N   UNL     1     -21.082 -12.352  -0.467  1.00  0.00    -0.346 N 
HETATM   58  C   UNL     1     -20.393 -13.353  -1.110  1.00  0.00     0.241 C 
HETATM   59  O   UNL     1     -20.445 -13.564  -2.324  1.00  0.00    -0.271 OA
HETATM   60  H   UNL     1     -21.284 -12.486   0.519  1.00  0.00     0.163 HD
BRANCH  58  61
HETATM   61  C   UNL     1     -19.505 -14.264  -0.226  1.00  0.00     0.176 C 
BRANCH  61  62
HETATM   62  C   UNL     1     -18.990 -15.559  -0.886  1.00  0.00     0.036 C 
BRANCH  62  63
HETATM   63  C   UNL     1     -19.341 -16.837  -0.129  1.00  0.00     0.022 C 
BRANCH  63  64
HETATM   64  C   UNL     1     -19.413 -16.603   1.373  1.00  0.00     0.121 C 
BRANCH  64  65
HETATM   65  N   UNL     1     -20.650 -17.183   1.867  1.00  0.00    -0.372 N 
HETATM   66  C   UNL     1     -21.487 -16.387   2.407  1.00  0.00     0.121 C 
HETATM   67  N   UNL     1     -21.405 -15.063   2.650  1.00  0.00    -0.279 NA
HETATM   68  N   UNL     1     -22.672 -16.868   2.860  1.00  0.00    -0.279 NA
HETATM   69  H   UNL     1     -20.637 -14.605   2.181  1.00  0.00     0.126 HD
HETATM   70  H   UNL     1     -22.278 -14.580   2.478  1.00  0.00     0.126 HD
HETATM   71  H   UNL     1     -22.631 -17.882   2.912  1.00  0.00     0.126 HD
HETATM   72  H   UNL     1     -22.956 -16.468   3.746  1.00  0.00     0.126 HD
ATOM     73  HN  UNL     1     -20.841 -18.182   1.784  1.00  0.00     0.161 HD
ENDBRANCH  64  65
ENDBRANCH  63  64
ENDBRANCH  62  63
ENDBRANCH  61  62
BRANCH  61  74
HETATM   74  N   UNL     1     -18.472 -13.369   0.307  1.00  0.00    -0.346 N 
HETATM   75  C   UNL     1     -17.396 -13.110  -0.513  1.00  0.00     0.241 C 
HETATM   76  O   UNL     1     -17.260 -13.784  -1.536  1.00  0.00    -0.271 OA
HETATM   77  H   UNL     1     -18.767 -12.673   0.979  1.00  0.00     0.163 HD
BRANCH  75  78
HETATM   78  C   UNL     1     -16.418 -11.956  -0.196  1.00  0.00     0.180 C 
BRANCH  78  79
HETATM   79  C   UNL     1     -15.648 -12.028   1.146  1.00  0.00     0.073 C 
BRANCH  79  80
HETATM   80  C   UNL     1     -15.047 -13.328   1.648  1.00  0.00    -0.056 A 
HETATM   81  C   UNL     1     -13.925 -13.933   1.075  1.00  0.00     0.007 A 
HETATM   82  C   UNL     1     -13.380 -15.098   1.617  1.00  0.00     0.001 A 
HETATM   83  C   UNL     1     -13.949 -15.682   2.745  1.00  0.00     0.000 A 
HETATM   84  C   UNL     1     -15.096 -15.128   3.303  1.00  0.00     0.001 A 
HETATM   85  C   UNL     1     -15.649 -13.968   2.751  1.00  0.00     0.007 A 
ENDBRANCH  79  80
ENDBRANCH  78  79
BRANCH  78  86
HETATM   86  N   UNL     1     -15.554 -11.742  -1.382  1.00  0.00    -0.346 N 
HETATM   87  C   UNL     1     -16.024 -10.953  -2.441  1.00  0.00     0.241 C 
HETATM   88  O   UNL     1     -17.012 -10.226  -2.334  1.00  0.00    -0.271 OA
HETATM   89  H   UNL     1     -14.872 -12.457  -1.596  1.00  0.00     0.163 HD
BRANCH  87  90
HETATM   90  C   UNL     1     -15.149 -10.958  -3.725  1.00  0.00     0.179 C 
HETATM   91  C   UNL     1     -15.916 -10.093  -4.746  1.00  0.00     0.037 C 
HETATM   92  C   UNL     1     -15.394 -10.522  -6.106  1.00  0.00     0.022 C 
HETATM   93  C   UNL     1     -15.011 -11.978  -5.912  1.00  0.00     0.127 C 
HETATM   94  N   UNL     1     -15.027 -12.218  -4.473  1.00  0.00    -0.337 N 
HETATM   95  C   UNL     1     -14.623 -13.429  -3.910  1.00  0.00     0.253 C 
HETATM   96  O   UNL     1     -14.172 -13.503  -2.768  1.00  0.00    -0.271 OA
BRANCH  95  97
HETATM   97  C   UNL     1     -14.803 -14.686  -4.838  1.00  0.00     0.309 C 
BRANCH  97  98
HETATM   98  C   UNL     1     -16.110 -14.737  -5.659  1.00  0.00     0.055 C 
BRANCH  98  99
HETATM   99  C   UNL     1     -17.354 -15.279  -4.900  1.00  0.00     0.076 C 
BRANCH  99 100
HETATM  100  S   UNL     1     -18.578 -16.151  -5.961  1.00  0.00    -0.173 SA
HETATM  101  C   UNL     1     -20.150 -15.695  -5.196  1.00  0.00     0.089 C 
ENDBRANCH  99 100
ENDBRANCH  98  99
ENDBRANCH  97  98
BRANCH  97 102
HETATM  102  N   UNL     1     -13.639 -14.735  -5.754  1.00  0.00     0.092 N 
HETATM  103  H   UNL     1     -13.709 -13.941  -6.395  1.00  0.00     0.313 HD
HETATM  104  H   UNL     1     -13.740 -15.560  -6.353  1.00  0.00     0.313 HD
ENDBRANCH  97 102
ENDBRANCH  95  97
ENDBRANCH  87  90
ENDBRANCH  78  86
ENDBRANCH  75  78
ENDBRANCH  61  74
ENDBRANCH  58  61
ENDBRANCH   1  57
TORSDOF 35
BEGIN_RES ARG D 557
REMARK  4 active torsions:
REMARK  status: ('A' for Active; 'I' for Inactive)
REMARK    1  A    between atoms: CA   and  CB  
REMARK    2  A    between atoms: CB   and  CG  
REMARK    3  A    between atoms: CG   and  CD  
REMARK    4  A    between atoms: CD   and  NE  
REMARK       I    between atoms: NE   and  CZ  
REMARK       I    between atoms: CZ   and  NH1 
REMARK       I    between atoms: CZ   and  NH2 
ROOT
ATOM      1  CA  ARG D 557     -26.217   2.705 -17.014  1.00 35.49     0.159 C 
ENDROOT
BRANCH   1   2
ATOM      2  CB  ARG D 557     -26.789   1.319 -17.183  1.00 35.49     0.034 C 
BRANCH   2   3
ATOM      3  CG  ARG D 557     -28.151   1.100 -16.680  1.00 35.49     0.027 C 
BRANCH   3   4
ATOM      4  CD  ARG D 557     -28.788  -0.095 -17.278  1.00 35.49     0.116 C 
BRANCH   4   5
ATOM      5  NE  ARG D 557     -28.174  -1.318 -16.831  1.00 35.49    -0.212 N 
ATOM      6  CZ  ARG D 557     -28.644  -2.529 -17.026  1.00 35.49     0.666 C 
ATOM      7  NH1 ARG D 557     -29.778  -2.756 -17.664  1.00 35.49    -0.235 N 
ATOM      8  NH2 ARG D 557     -27.943  -3.526 -16.569  1.00 35.49    -0.235 N 
ATOM      9  HH  ARG D 557     -30.254  -2.115 -17.975  1.00 35.49     0.174 HD
ATOM     10  HH  ARG D 557     -30.034  -3.568 -17.764  1.00 35.49     0.174 HD
ATOM     11  HH  ARG D 557     -27.212  -3.350 -16.168  1.00 35.49     0.174 HD
ATOM     12  HH  ARG D 557     -28.213  -4.322 -16.679  1.00 35.49     0.174 HD
ATOM     13  HE  ARG D 557     -27.476  -1.261 -16.349  1.00 35.49     0.178 HD
ENDBRANCH   4   5
ENDBRANCH   3   4
ENDBRANCH   2   3
ENDBRANCH   1   2
END_RES ARG D 557
BEGIN_RES GLU D 570
REMARK  3 active torsions:
REMARK  status: ('A' for Active; 'I' for Inactive)
REMARK    5  A    between atoms: CA   and  CB  
REMARK    6  A    between atoms: CB   and  CG  
REMARK    7  A    between atoms: CG   and  CD  
ROOT
ATOM     14  CA  GLU D 570     -18.033  -6.348 -13.375  1.00 32.92     0.160 C 
ENDROOT
BRANCH  14  15
ATOM     15  CB  GLU D 570     -19.500  -6.345 -13.794  1.00 32.92     0.043 C 
BRANCH  15  16
ATOM     16  CG  GLU D 570     -19.797  -6.245 -15.246  1.00 32.92     0.100 C 
BRANCH  16  17
ATOM     17  CD  GLU D 570     -20.538  -7.449 -15.781  1.00 32.92     0.185 C 
ATOM     18  OE1 GLU D 570     -20.531  -8.505 -15.121  1.00 32.92    -0.647 OA
ATOM     19  OE2 GLU D 570     -21.116  -7.338 -16.880  1.00 32.92    -0.647 OA
ENDBRANCH  16  17
ENDBRANCH  15  16
ENDBRANCH  14  15
END_RES GLU D 570
ENDMDL
MODEL 4
REMARK VINA RESULT:      -7.3      2.439      4.641
REMARK WARNING: 32 MAX_TORS EXCEEDED!!!
REMARK  35 active torsions:
REMARK  status: ('A' for Active; 'I' for Inactive)
REMARK    1  A    between atoms: C_2  and  C_4 
REMARK    2  A    between atoms: C_4  and  C_5 
REMARK    3  A    between atoms: C_4  and  N_8 
REMARK       I    between atoms: C_5  and  N_7 
REMARK       I    between atoms: N_8  and  C_9 
REMARK    4  A    between atoms: C_9  and  C_11 
REMARK       I    between atoms: N_15  and  C_16 
REMARK    5  A    between atoms: C_16  and  C_18 
REMARK    6  A    between atoms: C_18  and  C_19 
REMARK    7  A    between atoms: C_18  and  N_24 
REMARK    8  A    between atoms: C_19  and  C_20 
REMARK    9  A    between atoms: C_20  and  C_21 
REMARK   10  A    between atoms: C_21  and  C_22 
REMARK   11  A    between atoms: C_22  and  N_23 
REMARK       I    between atoms: N_24  and  C_25 
REMARK   12  A    between atoms: C_25  and  C_27 
REMARK   13  A    between atoms: C_27  and  C_28 
REMARK   14  A    between atoms: C_27  and  N_35 
REMARK   15  A    between atoms: C_28  and  C_29 
REMARK       I    between atoms: N_35  and  C_36 
REMARK   16  A    between atoms: C_36  and  C_38 
REMARK   17  A    between atoms: C_38  and  C_39 
REMARK   18  A    between atoms: C_38  and  N_49 
REMARK   19  A    between atoms: C_39  and  C_40 
REMARK       I    between atoms: N_49  and  C_50 
REMARK   20  A    between atoms: C_50  and  C_52 
REMARK   21  A    between atoms: C_52  and  C_53 
REMARK   22  A    between atoms: C_52  and  N_61 
REMARK   23  A    between atoms: C_53  and  C_54 
REMARK   24  A    between atoms: C_54  and  C_55 
REMARK   25  A    between atoms: C_55  and  N_56 
REMARK       I    between atoms: C_58  and  N_59 
REMARK       I    between atoms: C_58  and  N_60 
REMARK       I    between atoms: N_61  and  C_62 
REMARK   26  A    between atoms: C_62  and  C_64 
REMARK   27  A    between atoms: C_64  and  C_65 
REMARK   28  A    between atoms: C_64  and  N_72 
REMARK   29  A    between atoms: C_65  and  C_66 
REMARK       I    between atoms: N_72  and  C_73 
REMARK   30  A    between atoms: C_73  and  C_75 
REMARK       I    between atoms: N_79  and  C_80 
REMARK   31  A    between atoms: C_80  and  C_82 
REMARK   32  A    between atoms: C_82  and  C_83 
REMARK   33  A    between atoms: C_82  and  N_87 
REMARK   34  A    between atoms: C_83  and  C_84 
REMARK   35  A    between atoms: C_84  and  S_85 
ROOT
HETATM    1  C   UNL     1     -20.015 -13.450  -4.583  1.00  0.00     0.181 C 
ENDROOT
BRANCH   1   2
HETATM    2  C   UNL     1     -19.769 -12.055  -5.294  1.00  0.00     0.241 C 
HETATM    3  N   UNL     1     -18.538 -11.438  -5.158  1.00  0.00    -0.346 N 
HETATM    4  H   UNL     1     -17.845 -11.842  -4.540  1.00  0.00     0.163 HD
HETATM    5  O   UNL     1     -20.673 -11.520  -5.945  1.00  0.00    -0.271 OA
BRANCH   3   6
HETATM    6  C   UNL     1     -18.216 -10.086  -5.691  1.00  0.00     0.180 C 
BRANCH   6   7
HETATM    7  C   UNL     1     -18.914  -8.891  -4.900  1.00  0.00     0.241 C 
HETATM    8  N   UNL     1     -19.652  -7.987  -5.673  1.00  0.00    -0.346 N 
HETATM    9  H   UNL     1     -19.594  -8.071  -6.679  1.00  0.00     0.163 HD
HETATM   10  O   UNL     1     -18.856  -8.854  -3.670  1.00  0.00    -0.271 OA
BRANCH   8  11
HETATM   11  C   UNL     1     -20.603  -6.954  -5.160  1.00  0.00     0.176 C 
BRANCH  11  12
HETATM   12  C   UNL     1     -21.084  -6.041  -6.285  1.00  0.00     0.243 C 
HETATM   13  N   UNL     1     -20.225  -5.195  -6.954  1.00  0.00    -0.337 N 
HETATM   14  C   UNL     1     -20.694  -3.873  -7.484  1.00  0.00     0.179 C 
HETATM   15  C   UNL     1     -18.773  -5.237  -6.949  1.00  0.00     0.127 C 
HETATM   16  C   UNL     1     -19.554  -3.492  -8.414  1.00  0.00     0.037 C 
HETATM   17  C   UNL     1     -18.304  -3.982  -7.697  1.00  0.00     0.022 C 
HETATM   18  O   UNL     1     -22.318  -5.921  -6.393  1.00  0.00    -0.271 OA
BRANCH  14  19
HETATM   19  C   UNL     1     -22.062  -3.836  -8.167  1.00  0.00     0.241 C 
HETATM   20  N   UNL     1     -22.028  -3.700  -9.558  1.00  0.00    -0.346 N 
HETATM   21  H   UNL     1     -21.200  -3.240  -9.921  1.00  0.00     0.163 HD
HETATM   22  O   UNL     1     -23.107  -3.918  -7.514  1.00  0.00    -0.271 OA
BRANCH  20  23
HETATM   23  C   UNL     1     -23.270  -3.461 -10.296  1.00  0.00     0.179 C 
BRANCH  23  24
HETATM   24  C   UNL     1     -23.149  -2.866 -11.721  1.00  0.00     0.009 C 
HETATM   25  C   UNL     1     -21.964  -3.463 -12.489  1.00  0.00     0.012 C 
HETATM   26  C   UNL     1     -24.371  -2.908 -12.639  1.00  0.00     0.012 C 
ENDBRANCH  23  24
BRANCH  23  27
HETATM   27  C   UNL     1     -24.117  -4.767 -10.232  1.00  0.00     0.238 C 
HETATM   28  O   UNL     1     -23.813  -5.843 -10.735  1.00  0.00    -0.271 OA
HETATM   29  N   UNL     1     -25.293  -4.648  -9.548  1.00  0.00    -0.368 N 
HETATM   30  H   UNL     1     -25.568  -3.757  -9.133  1.00  0.00     0.159 HD
HETATM   31  H   UNL     1     -25.910  -5.442  -9.467  1.00  0.00     0.159 HD
ENDBRANCH  23  27
ENDBRANCH  20  23
ENDBRANCH  14  19
ENDBRANCH  11  12
BRANCH  11  32
HETATM   32  C   UNL     1     -21.912  -7.641  -4.605  1.00  0.00     0.035 C 
BRANCH  32  33
HETATM   33  C   UNL     1     -22.628  -6.861  -3.458  1.00  0.00     0.004 C 
BRANCH  33  34
HETATM   34  C   UNL     1     -21.744  -6.399  -2.288  1.00  0.00     0.030 C 
BRANCH  34  35
HETATM   35  C   UNL     1     -21.457  -7.518  -1.261  1.00  0.00     0.267 C 
BRANCH  35  36
HETATM   36  N   UNL     1     -22.443  -7.584  -0.177  1.00  0.00     0.078 N 
HETATM   37  H   UNL     1     -22.183  -6.922   0.554  1.00  0.00     0.312 HD
HETATM   38  H   UNL     1     -22.374  -8.505   0.267  1.00  0.00     0.312 HD
ENDBRANCH  35  36
ENDBRANCH  34  35
ENDBRANCH  33  34
ENDBRANCH  32  33
ENDBRANCH  11  32
ENDBRANCH   8  11
ENDBRANCH   6   7
BRANCH   6  39
HETATM   39  C   UNL     1     -16.694  -9.914  -5.908  1.00  0.00     0.073 C 
BRANCH  39  40
HETATM   40  C   UNL     1     -15.702 -10.889  -5.292  1.00  0.00    -0.056 A 
HETATM   41  C   UNL     1     -14.746 -11.605  -6.021  1.00  0.00     0.007 A 
HETATM   42  C   UNL     1     -13.798 -12.404  -5.371  1.00  0.00     0.001 A 
HETATM   43  C   UNL     1     -13.796 -12.510  -3.983  1.00  0.00     0.000 A 
HETATM   44  C   UNL     1     -14.771 -11.849  -3.244  1.00  0.00     0.001 A 
HETATM   45  C   UNL     1     -15.723 -11.059  -3.893  1.00  0.00     0.007 A 
ENDBRANCH  39  40
ENDBRANCH   6  39
ENDBRANCH   3   6
ENDBRANCH   1   2
BRANCH   1  46
HETATM   46  C   UNL     1     -21.443 -14.001  -4.708  1.00  0.00     0.075 C 
BRANCH  46  47
HETATM   47  C   UNL     1     -22.158 -14.131  -3.396  1.00  0.00    -0.028 C 
HETATM   48  C   UNL     1     -22.958 -15.188  -2.985  1.00  0.00     0.096 C 
HETATM   49  N   UNL     1     -23.356 -14.898  -1.711  1.00  0.00    -0.365 N 
HETATM   50  C   UNL     1     -23.385 -13.527  -1.634  1.00  0.00     0.042 C 
HETATM   51  H   UNL     1     -23.039 -15.463  -0.937  1.00  0.00     0.165 HD
HETATM   52  C   UNL     1     -24.257 -12.654  -1.000  1.00  0.00     0.030 C 
HETATM   53  C   UNL     1     -22.318 -13.103  -2.416  1.00  0.00    -0.002 C 
HETATM   54  C   UNL     1     -23.907 -11.305  -1.044  1.00  0.00     0.002 C 
HETATM   55  C   UNL     1     -22.675 -10.896  -1.565  1.00  0.00     0.001 C 
HETATM   56  C   UNL     1     -21.848 -11.791  -2.253  1.00  0.00     0.014 C 
ENDBRANCH  46  47
ENDBRANCH   1  46
BRANCH   1  57
HETATM   57  N   UNL     1     -18.990 -14.367  -5.123  1.00  0.00    -0.346 N 
HETATM   58  C   UNL     1     -19.102 -15.735  -5.200  1.00  0.00     0.241 C 
HETATM   59  O   UNL     1     -20.068 -16.378  -4.784  1.00  0.00    -0.271 OA
HETATM   60  H   UNL     1     -18.054 -13.975  -5.125  1.00  0.00     0.163 HD
BRANCH  58  61
HETATM   61  C   UNL     1     -17.919 -16.492  -5.852  1.00  0.00     0.176 C 
BRANCH  61  62
HETATM   62  C   UNL     1     -17.186 -15.757  -6.993  1.00  0.00     0.036 C 
BRANCH  62  63
HETATM   63  C   UNL     1     -17.448 -16.329  -8.383  1.00  0.00     0.022 C 
BRANCH  63  64
HETATM   64  C   UNL     1     -18.549 -15.569  -9.110  1.00  0.00     0.121 C 
BRANCH  64  65
HETATM   65  N   UNL     1     -18.223 -14.154  -9.081  1.00  0.00    -0.372 N 
HETATM   66  C   UNL     1     -19.109 -13.365  -8.612  1.00  0.00     0.121 C 
HETATM   67  N   UNL     1     -20.356 -13.616  -8.166  1.00  0.00    -0.279 NA
HETATM   68  N   UNL     1     -18.848 -12.036  -8.535  1.00  0.00    -0.279 NA
HETATM   69  H   UNL     1     -20.553 -14.596  -8.022  1.00  0.00     0.126 HD
HETATM   70  H   UNL     1     -20.592 -13.073  -7.344  1.00  0.00     0.126 HD
HETATM   71  H   UNL     1     -18.030 -11.815  -9.096  1.00  0.00     0.126 HD
HETATM   72  H   UNL     1     -19.636 -11.456  -8.794  1.00  0.00     0.126 HD
ATOM     73  HN  UNL     1     -17.325 -13.807  -9.419  1.00  0.00     0.161 HD
ENDBRANCH  64  65
ENDBRANCH  63  64
ENDBRANCH  62  63
ENDBRANCH  61  62
BRANCH  61  74
HETATM   74  N   UNL     1     -17.080 -16.909  -4.723  1.00  0.00    -0.346 N 
HETATM   75  C   UNL     1     -16.246 -15.952  -4.187  1.00  0.00     0.241 C 
HETATM   76  O   UNL     1     -16.103 -14.890  -4.793  1.00  0.00    -0.271 OA
HETATM   77  H   UNL     1     -17.435 -17.650  -4.134  1.00  0.00     0.163 HD
BRANCH  75  78
HETATM   78  C   UNL     1     -15.560 -16.178  -2.820  1.00  0.00     0.180 C 
BRANCH  78  79
HETATM   79  C   UNL     1     -14.012 -16.224  -2.804  1.00  0.00     0.073 C 
BRANCH  79  80
HETATM   80  C   UNL     1     -13.222 -15.965  -1.535  1.00  0.00    -0.056 A 
HETATM   81  C   UNL     1     -13.141 -16.874  -0.476  1.00  0.00     0.007 A 
HETATM   82  C   UNL     1     -12.350 -16.606   0.643  1.00  0.00     0.001 A 
HETATM   83  C   UNL     1     -11.623 -15.422   0.723  1.00  0.00     0.000 A 
HETATM   84  C   UNL     1     -11.726 -14.480  -0.294  1.00  0.00     0.001 A 
HETATM   85  C   UNL     1     -12.530 -14.743  -1.409  1.00  0.00     0.007 A 
ENDBRANCH  79  80
ENDBRANCH  78  79
BRANCH  78  86
HETATM   86  N   UNL     1     -16.149 -15.229  -1.844  1.00  0.00    -0.346 N 
HETATM   87  C   UNL     1     -17.509 -15.335  -1.518  1.00  0.00     0.241 C 
HETATM   88  O   UNL     1     -18.181 -16.326  -1.807  1.00  0.00    -0.271 OA
HETATM   89  H   UNL     1     -15.716 -14.319  -1.759  1.00  0.00     0.163 HD
BRANCH  87  90
HETATM   90  C   UNL     1     -18.088 -14.176  -0.659  1.00  0.00     0.179 C 
HETATM   91  C   UNL     1     -18.055 -12.935  -1.572  1.00  0.00     0.037 C 
HETATM   92  C   UNL     1     -18.084 -11.744  -0.630  1.00  0.00     0.022 C 
HETATM   93  C   UNL     1     -17.395 -12.249   0.624  1.00  0.00     0.127 C 
HETATM   94  N   UNL     1     -17.291 -13.697   0.481  1.00  0.00    -0.337 N 
HETATM   95  C   UNL     1     -16.801 -14.518   1.496  1.00  0.00     0.253 C 
HETATM   96  O   UNL     1     -17.138 -15.695   1.609  1.00  0.00    -0.271 OA
BRANCH  95  97
HETATM   97  C   UNL     1     -15.775 -13.830   2.471  1.00  0.00     0.309 C 
BRANCH  97  98
HETATM   98  C   UNL     1     -15.414 -14.628   3.742  1.00  0.00     0.055 C 
BRANCH  98  99
HETATM   99  C   UNL     1     -14.464 -15.840   3.522  1.00  0.00     0.076 C 
BRANCH  99 100
HETATM  100  S   UNL     1     -13.492 -16.329   5.005  1.00  0.00    -0.173 SA
HETATM  101  C   UNL     1     -11.793 -16.005   4.480  1.00  0.00     0.089 C 
ENDBRANCH  99 100
ENDBRANCH  98  99
ENDBRANCH  97  98
BRANCH  97 102
HETATM  102  N   UNL     1     -14.544 -13.546   1.695  1.00  0.00     0.092 N 
HETATM  103  H   UNL     1     -14.686 -13.891   0.743  1.00  0.00     0.313 HD
HETATM  104  H   UNL     1     -13.790 -14.129   2.072  1.00  0.00     0.313 HD
ENDBRANCH  97 102
ENDBRANCH  95  97
ENDBRANCH  87  90
ENDBRANCH  78  86
ENDBRANCH  75  78
ENDBRANCH  61  74
ENDBRANCH  58  61
ENDBRANCH   1  57
TORSDOF 35
BEGIN_RES ARG D 557
REMARK  4 active torsions:
REMARK  status: ('A' for Active; 'I' for Inactive)
REMARK    1  A    between atoms: CA   and  CB  
REMARK    2  A    between atoms: CB   and  CG  
REMARK    3  A    between atoms: CG   and  CD  
REMARK    4  A    between atoms: CD   and  NE  
REMARK       I    between atoms: NE   and  CZ  
REMARK       I    between atoms: CZ   and  NH1 
REMARK       I    between atoms: CZ   and  NH2 
ROOT
ATOM      1  CA  ARG D 557     -26.217   2.705 -17.014  1.00 35.49     0.159 C 
ENDROOT
BRANCH   1   2
ATOM      2  CB  ARG D 557     -26.789   1.319 -17.183  1.00 35.49     0.034 C 
BRANCH   2   3
ATOM      3  CG  ARG D 557     -28.227   1.227 -17.463  1.00 35.49     0.027 C 
BRANCH   3   4
ATOM      4  CD  ARG D 557     -28.859   0.065 -16.798  1.00 35.49     0.116 C 
BRANCH   4   5
ATOM      5  NE  ARG D 557     -27.885  -0.835 -16.239  1.00 35.49    -0.212 N 
ATOM      6  CZ  ARG D 557     -27.822  -2.130 -16.455  1.00 35.49     0.666 C 
ATOM      7  NH1 ARG D 557     -28.689  -2.763 -17.224  1.00 35.49    -0.235 N 
ATOM      8  NH2 ARG D 557     -26.857  -2.789 -15.882  1.00 35.49    -0.235 N 
ATOM      9  HH  ARG D 557     -29.330  -2.349 -17.613  1.00 35.49     0.174 HD
ATOM     10  HH  ARG D 557     -28.597  -3.608 -17.331  1.00 35.49     0.174 HD
ATOM     11  HH  ARG D 557     -26.308  -2.352 -15.396  1.00 35.49     0.174 HD
ATOM     12  HH  ARG D 557     -26.782  -3.625 -16.000  1.00 35.49     0.174 HD
ATOM     13  HE  ARG D 557     -27.331  -0.524 -15.673  1.00 35.49     0.178 HD
ENDBRANCH   4   5
ENDBRANCH   3   4
ENDBRANCH   2   3
ENDBRANCH   1   2
END_RES ARG D 557
BEGIN_RES GLU D 570
REMARK  3 active torsions:
REMARK  status: ('A' for Active; 'I' for Inactive)
REMARK    5  A    between atoms: CA   and  CB  
REMARK    6  A    between atoms: CB   and  CG  
REMARK    7  A    between atoms: CG   and  CD  
ROOT
ATOM     14  CA  GLU D 570     -18.033  -6.348 -13.375  1.00 32.92     0.160 C 
ENDROOT
BRANCH  14  15
ATOM     15  CB  GLU D 570     -19.500  -6.345 -13.794  1.00 32.92     0.043 C 
BRANCH  15  16
ATOM     16  CG  GLU D 570     -19.796  -6.321 -15.250  1.00 32.92     0.100 C 
BRANCH  16  17
ATOM     17  CD  GLU D 570     -20.859  -7.317 -15.651  1.00 32.92     0.185 C 
ATOM     18  OE1 GLU D 570     -20.597  -8.535 -15.601  1.00 32.92    -0.647 OA
ATOM     19  OE2 GLU D 570     -21.959  -6.875 -16.037  1.00 32.92    -0.647 OA
ENDBRANCH  16  17
ENDBRANCH  15  16
ENDBRANCH  14  15
END_RES GLU D 570
ENDMDL
MODEL 5
REMARK VINA RESULT:      -6.6      1.599      2.136
REMARK WARNING: 32 MAX_TORS EXCEEDED!!!
REMARK  35 active torsions:
REMARK  status: ('A' for Active; 'I' for Inactive)
REMARK    1  A    between atoms: C_2  and  C_4 
REMARK    2  A    between atoms: C_4  and  C_5 
REMARK    3  A    between atoms: C_4  and  N_8 
REMARK       I    between atoms: C_5  and  N_7 
REMARK       I    between atoms: N_8  and  C_9 
REMARK    4  A    between atoms: C_9  and  C_11 
REMARK       I    between atoms: N_15  and  C_16 
REMARK    5  A    between atoms: C_16  and  C_18 
REMARK    6  A    between atoms: C_18  and  C_19 
REMARK    7  A    between atoms: C_18  and  N_24 
REMARK    8  A    between atoms: C_19  and  C_20 
REMARK    9  A    between atoms: C_20  and  C_21 
REMARK   10  A    between atoms: C_21  and  C_22 
REMARK   11  A    between atoms: C_22  and  N_23 
REMARK       I    between atoms: N_24  and  C_25 
REMARK   12  A    between atoms: C_25  and  C_27 
REMARK   13  A    between atoms: C_27  and  C_28 
REMARK   14  A    between atoms: C_27  and  N_35 
REMARK   15  A    between atoms: C_28  and  C_29 
REMARK       I    between atoms: N_35  and  C_36 
REMARK   16  A    between atoms: C_36  and  C_38 
REMARK   17  A    between atoms: C_38  and  C_39 
REMARK   18  A    between atoms: C_38  and  N_49 
REMARK   19  A    between atoms: C_39  and  C_40 
REMARK       I    between atoms: N_49  and  C_50 
REMARK   20  A    between atoms: C_50  and  C_52 
REMARK   21  A    between atoms: C_52  and  C_53 
REMARK   22  A    between atoms: C_52  and  N_61 
REMARK   23  A    between atoms: C_53  and  C_54 
REMARK   24  A    between atoms: C_54  and  C_55 
REMARK   25  A    between atoms: C_55  and  N_56 
REMARK       I    between atoms: C_58  and  N_59 
REMARK       I    between atoms: C_58  and  N_60 
REMARK       I    between atoms: N_61  and  C_62 
REMARK   26  A    between atoms: C_62  and  C_64 
REMARK   27  A    between atoms: C_64  and  C_65 
REMARK   28  A    between atoms: C_64  and  N_72 
REMARK   29  A    between atoms: C_65  and  C_66 
REMARK       I    between atoms: N_72  and  C_73 
REMARK   30  A    between atoms: C_73  and  C_75 
REMARK       I    between atoms: N_79  and  C_80 
REMARK   31  A    between atoms: C_80  and  C_82 
REMARK   32  A    between atoms: C_82  and  C_83 
REMARK   33  A    between atoms: C_82  and  N_87 
REMARK   34  A    between atoms: C_83  and  C_84 
REMARK   35  A    between atoms: C_84  and  S_85 
ROOT
HETATM    1  C   UNL     1     -21.596 -12.245  -1.473  1.00  0.00     0.181 C 
ENDROOT
BRANCH   1   2
HETATM    2  C   UNL     1     -20.682 -11.471  -2.511  1.00  0.00     0.241 C 
HETATM    3  N   UNL     1     -21.176 -11.205  -3.775  1.00  0.00    -0.346 N 
HETATM    4  H   UNL     1     -22.076 -11.582  -4.047  1.00  0.00     0.163 HD
HETATM    5  O   UNL     1     -19.537 -11.126  -2.197  1.00  0.00    -0.271 OA
BRANCH   3   6
HETATM    6  C   UNL     1     -20.384 -10.576  -4.868  1.00  0.00     0.180 C 
BRANCH   6   7
HETATM    7  C   UNL     1     -20.064  -9.032  -4.633  1.00  0.00     0.241 C 
HETATM    8  N   UNL     1     -21.043  -8.127  -5.060  1.00  0.00    -0.346 N 
HETATM    9  H   UNL     1     -21.820  -8.492  -5.595  1.00  0.00     0.163 HD
HETATM   10  O   UNL     1     -19.042  -8.703  -4.028  1.00  0.00    -0.271 OA
BRANCH   8  11
HETATM   11  C   UNL     1     -21.110  -6.672  -4.724  1.00  0.00     0.176 C 
BRANCH  11  12
HETATM   12  C   UNL     1     -21.455  -5.838  -5.955  1.00  0.00     0.243 C 
HETATM   13  N   UNL     1     -20.484  -5.206  -6.703  1.00  0.00    -0.337 N 
HETATM   14  C   UNL     1     -20.761  -3.902  -7.391  1.00  0.00     0.179 C 
HETATM   15  C   UNL     1     -19.053  -5.452  -6.668  1.00  0.00     0.127 C 
HETATM   16  C   UNL     1     -19.578  -3.797  -8.338  1.00  0.00     0.037 C 
HETATM   17  C   UNL     1     -18.410  -4.371  -7.548  1.00  0.00     0.022 C 
HETATM   18  O   UNL     1     -22.660  -5.558  -6.098  1.00  0.00    -0.271 OA
BRANCH  14  19
HETATM   19  C   UNL     1     -22.108  -3.753  -8.096  1.00  0.00     0.241 C 
HETATM   20  N   UNL     1     -22.048  -3.723  -9.493  1.00  0.00    -0.346 N 
HETATM   21  H   UNL     1     -21.168  -3.391  -9.874  1.00  0.00     0.163 HD
HETATM   22  O   UNL     1     -23.161  -3.663  -7.456  1.00  0.00    -0.271 OA
BRANCH  20  23
HETATM   23  C   UNL     1     -23.247  -3.392 -10.266  1.00  0.00     0.179 C 
BRANCH  23  24
HETATM   24  C   UNL     1     -23.040  -2.795 -11.680  1.00  0.00     0.009 C 
HETATM   25  C   UNL     1     -21.760  -3.320 -12.339  1.00  0.00     0.012 C 
HETATM   26  C   UNL     1     -24.175  -2.914 -12.699  1.00  0.00     0.012 C 
ENDBRANCH  23  24
BRANCH  23  27
HETATM   27  C   UNL     1     -24.184  -4.637 -10.242  1.00  0.00     0.238 C 
HETATM   28  O   UNL     1     -23.972  -5.703 -10.807  1.00  0.00    -0.271 OA
HETATM   29  N   UNL     1     -25.329  -4.472  -9.517  1.00  0.00    -0.368 N 
HETATM   30  H   UNL     1     -25.528  -3.586  -9.049  1.00  0.00     0.159 HD
HETATM   31  H   UNL     1     -25.999  -5.223  -9.457  1.00  0.00     0.159 HD
ENDBRANCH  23  27
ENDBRANCH  20  23
ENDBRANCH  14  19
ENDBRANCH  11  12
BRANCH  11  32
HETATM   32  C   UNL     1     -22.282  -6.398  -3.704  1.00  0.00     0.035 C 
BRANCH  32  33
HETATM   33  C   UNL     1     -21.826  -6.131  -2.235  1.00  0.00     0.004 C 
BRANCH  33  34
HETATM   34  C   UNL     1     -22.466  -7.010  -1.148  1.00  0.00     0.030 C 
BRANCH  34  35
HETATM   35  C   UNL     1     -21.445  -7.902  -0.405  1.00  0.00     0.267 C 
BRANCH  35  36
HETATM   36  N   UNL     1     -20.278  -8.259  -1.220  1.00  0.00     0.078 N 
HETATM   37  H   UNL     1     -19.442  -7.843  -0.810  1.00  0.00     0.312 HD
HETATM   38  H   UNL     1     -20.373  -7.809  -2.135  1.00  0.00     0.312 HD
ENDBRANCH  35  36
ENDBRANCH  34  35
ENDBRANCH  33  34
ENDBRANCH  32  33
ENDBRANCH  11  32
ENDBRANCH   8  11
ENDBRANCH   6   7
BRANCH   6  39
HETATM   39  C   UNL     1     -19.157 -11.440  -5.244  1.00  0.00     0.073 C 
BRANCH  39  40
HETATM   40  C   UNL     1     -19.113 -12.205  -6.558  1.00  0.00    -0.056 A 
HETATM   41  C   UNL     1     -20.245 -12.670  -7.236  1.00  0.00     0.007 A 
HETATM   42  C   UNL     1     -20.131 -13.274  -8.494  1.00  0.00     0.001 A 
HETATM   43  C   UNL     1     -18.884 -13.433  -9.090  1.00  0.00     0.000 A 
HETATM   44  C   UNL     1     -17.741 -13.025  -8.410  1.00  0.00     0.001 A 
HETATM   45  C   UNL     1     -17.854 -12.431  -7.150  1.00  0.00     0.007 A 
ENDBRANCH  39  40
ENDBRANCH   6  39
ENDBRANCH   3   6
ENDBRANCH   1   2
BRANCH   1  46
HETATM   46  C   UNL     1     -23.031 -12.518  -1.945  1.00  0.00     0.075 C 
BRANCH  46  47
HETATM   47  C   UNL     1     -23.316 -13.967  -2.210  1.00  0.00    -0.028 C 
HETATM   48  C   UNL     1     -23.728 -14.916  -1.286  1.00  0.00     0.096 C 
HETATM   49  N   UNL     1     -23.908 -16.078  -1.981  1.00  0.00    -0.365 N 
HETATM   50  C   UNL     1     -23.032 -16.018  -3.037  1.00  0.00     0.042 C 
HETATM   51  H   UNL     1     -24.831 -16.473  -2.084  1.00  0.00     0.165 HD
HETATM   52  C   UNL     1     -22.247 -16.988  -3.644  1.00  0.00     0.030 C 
HETATM   53  C   UNL     1     -23.014 -14.681  -3.411  1.00  0.00    -0.002 C 
HETATM   54  C   UNL     1     -21.552 -16.583  -4.783  1.00  0.00     0.002 C 
HETATM   55  C   UNL     1     -21.765 -15.321  -5.348  1.00  0.00     0.001 C 
HETATM   56  C   UNL     1     -22.512 -14.345  -4.678  1.00  0.00     0.014 C 
ENDBRANCH  46  47
ENDBRANCH   1  46
BRANCH   1  57
HETATM   57  N   UNL     1     -20.857 -13.476  -1.122  1.00  0.00    -0.346 N 
HETATM   58  C   UNL     1     -20.564 -13.896   0.153  1.00  0.00     0.241 C 
HETATM   59  O   UNL     1     -20.849 -13.267   1.175  1.00  0.00    -0.271 OA
HETATM   60  H   UNL     1     -20.276 -13.831  -1.875  1.00  0.00     0.163 HD
BRANCH  58  61
HETATM   61  C   UNL     1     -19.822 -15.248   0.285  1.00  0.00     0.176 C 
BRANCH  61  62
HETATM   62  C   UNL     1     -19.753 -16.114  -0.990  1.00  0.00     0.036 C 
BRANCH  62  63
HETATM   63  C   UNL     1     -19.340 -15.355  -2.247  1.00  0.00     0.022 C 
BRANCH  63  64
HETATM   64  C   UNL     1     -17.990 -15.820  -2.773  1.00  0.00     0.121 C 
BRANCH  64  65
HETATM   65  N   UNL     1     -17.851 -15.361  -4.144  1.00  0.00    -0.372 N 
HETATM   66  C   UNL     1     -17.129 -16.068  -4.922  1.00  0.00     0.121 C 
HETATM   67  N   UNL     1     -16.409 -17.182  -4.675  1.00  0.00    -0.279 NA
HETATM   68  N   UNL     1     -16.986 -15.702  -6.220  1.00  0.00    -0.279 NA
HETATM   69  H   UNL     1     -16.611 -17.614  -3.785  1.00  0.00     0.126 HD
HETATM   70  H   UNL     1     -16.465 -17.856  -5.429  1.00  0.00     0.126 HD
HETATM   71  H   UNL     1     -17.308 -14.746  -6.343  1.00  0.00     0.126 HD
HETATM   72  H   UNL     1     -16.043 -15.819  -6.569  1.00  0.00     0.126 HD
ATOM     73  HN  UNL     1     -18.311 -14.511  -4.470  1.00  0.00     0.161 HD
ENDBRANCH  64  65
ENDBRANCH  63  64
ENDBRANCH  62  63
ENDBRANCH  61  62
BRANCH  61  74
HETATM   74  N   UNL     1     -18.530 -14.904   0.889  1.00  0.00    -0.346 N 
HETATM   75  C   UNL     1     -18.196 -15.564   2.052  1.00  0.00     0.241 C 
HETATM   76  O   UNL     1     -19.061 -16.235   2.616  1.00  0.00    -0.271 OA
HETATM   77  H   UNL     1     -17.798 -14.590   0.266  1.00  0.00     0.163 HD
BRANCH  75  78
HETATM   78  C   UNL     1     -16.751 -15.520   2.600  1.00  0.00     0.180 C 
BRANCH  78  79
HETATM   79  C   UNL     1     -16.344 -16.619   3.613  1.00  0.00     0.073 C 
BRANCH  79  80
HETATM   80  C   UNL     1     -15.346 -16.347   4.722  1.00  0.00    -0.056 A 
HETATM   81  C   UNL     1     -15.684 -16.325   6.078  1.00  0.00     0.007 A 
HETATM   82  C   UNL     1     -14.711 -16.128   7.059  1.00  0.00     0.001 A 
HETATM   83  C   UNL     1     -13.378 -15.948   6.702  1.00  0.00     0.000 A 
HETATM   84  C   UNL     1     -13.024 -15.915   5.357  1.00  0.00     0.001 A 
HETATM   85  C   UNL     1     -14.002 -16.099   4.374  1.00  0.00     0.007 A 
ENDBRANCH  79  80
ENDBRANCH  78  79
BRANCH  78  86
HETATM   86  N   UNL     1     -15.825 -15.380   1.450  1.00  0.00    -0.346 N 
HETATM   87  C   UNL     1     -15.270 -14.125   1.164  1.00  0.00     0.241 C 
HETATM   88  O   UNL     1     -15.314 -13.187   1.961  1.00  0.00    -0.271 OA
HETATM   89  H   UNL     1     -15.930 -16.032   0.684  1.00  0.00     0.163 HD
BRANCH  87  90
HETATM   90  C   UNL     1     -14.487 -14.024  -0.175  1.00  0.00     0.179 C 
HETATM   91  C   UNL     1     -15.212 -14.978  -1.145  1.00  0.00     0.037 C 
HETATM   92  C   UNL     1     -14.191 -15.307  -2.220  1.00  0.00     0.022 C 
HETATM   93  C   UNL     1     -12.857 -15.216  -1.503  1.00  0.00     0.127 C 
HETATM   94  N   UNL     1     -13.123 -14.573  -0.220  1.00  0.00    -0.337 N 
HETATM   95  C   UNL     1     -12.108 -14.228   0.671  1.00  0.00     0.253 C 
HETATM   96  O   UNL     1     -12.225 -13.302   1.473  1.00  0.00    -0.271 OA
BRANCH  95  97
HETATM   97  C   UNL     1     -10.814 -15.119   0.583  1.00  0.00     0.309 C 
BRANCH  97  98
HETATM   98  C   UNL     1      -9.498 -14.442   1.025  1.00  0.00     0.055 C 
BRANCH  98  99
HETATM   99  C   UNL     1      -9.545 -13.730   2.407  1.00  0.00     0.076 C 
BRANCH  99 100
HETATM  100  S   UNL     1      -8.712 -14.645   3.767  1.00  0.00    -0.173 SA
HETATM  101  C   UNL     1      -8.948 -13.543   5.179  1.00  0.00     0.089 C 
ENDBRANCH  99 100
ENDBRANCH  98  99
ENDBRANCH  97  98
BRANCH  97 102
HETATM  102  N   UNL     1     -11.050 -16.330   1.405  1.00  0.00     0.092 N 
HETATM  103  H   UNL     1     -11.874 -16.808   1.032  1.00  0.00     0.313 HD
HETATM  104  H   UNL     1     -11.330 -16.028   2.343  1.00  0.00     0.313 HD
ENDBRANCH  97 102
ENDBRANCH  95  97
ENDBRANCH  87  90
ENDBRANCH  78  86
ENDBRANCH  75  78
ENDBRANCH  61  74
ENDBRANCH  58  61
ENDBRANCH   1  57
TORSDOF 35
BEGIN_RES ARG D 557
REMARK  4 active torsions:
REMARK  status: ('A' for Active; 'I' for Inactive)
REMARK    1  A    between atoms: CA   and  CB  
REMARK    2  A    between atoms: CB   and  CG  
REMARK    3  A    between atoms: CG   and  CD  
REMARK    4  A    between atoms: CD   and  NE  
REMARK       I    between atoms: NE   and  CZ  
REMARK       I    between atoms: CZ   and  NH1 
REMARK       I    between atoms: CZ   and  NH2 
ROOT
ATOM      1  CA  ARG D 557     -26.217   2.705 -17.014  1.00 35.49     0.159 C 
ENDROOT
BRANCH   1   2
ATOM      2  CB  ARG D 557     -26.789   1.319 -17.183  1.00 35.49     0.034 C 
BRANCH   2   3
ATOM      3  CG  ARG D 557     -28.177   1.120 -16.749  1.00 35.49     0.027 C 
BRANCH   3   4
ATOM      4  CD  ARG D 557     -28.791  -0.084 -17.355  1.00 35.49     0.116 C 
BRANCH   4   5
ATOM      5  NE  ARG D 557     -28.168  -1.299 -16.898  1.00 35.49    -0.212 N 
ATOM      6  CZ  ARG D 557     -28.653  -2.511 -17.042  1.00 35.49     0.666 C 
ATOM      7  NH1 ARG D 557     -29.811  -2.747 -17.631  1.00 35.49    -0.235 N 
ATOM      8  NH2 ARG D 557     -27.942  -3.501 -16.584  1.00 35.49    -0.235 N 
ATOM      9  HH  ARG D 557     -30.295  -2.111 -17.942  1.00 35.49     0.174 HD
ATOM     10  HH  ARG D 557     -30.076  -3.559 -17.699  1.00 35.49     0.174 HD
ATOM     11  HH  ARG D 557     -27.195  -3.319 -16.215  1.00 35.49     0.174 HD
ATOM     12  HH  ARG D 557     -28.221  -4.298 -16.662  1.00 35.49     0.174 HD
ATOM     13  HE  ARG D 557     -27.453  -1.234 -16.443  1.00 35.49     0.178 HD
ENDBRANCH   4   5
ENDBRANCH   3   4
ENDBRANCH   2   3
ENDBRANCH   1   2
END_RES ARG D 557
BEGIN_RES GLU D 570
REMARK  3 active torsions:
REMARK  status: ('A' for Active; 'I' for Inactive)
REMARK    5  A    between atoms: CA   and  CB  
REMARK    6  A    between atoms: CB   and  CG  
REMARK    7  A    between atoms: CG   and  CD  
ROOT
ATOM     14  CA  GLU D 570     -18.033  -6.348 -13.375  1.00 32.92     0.160 C 
ENDROOT
BRANCH  14  15
ATOM     15  CB  GLU D 570     -19.500  -6.345 -13.794  1.00 32.92     0.043 C 
BRANCH  15  16
ATOM     16  CG  GLU D 570     -19.824  -6.843 -15.156  1.00 32.92     0.100 C 
BRANCH  16  17
ATOM     17  CD  GLU D 570     -21.308  -7.005 -15.387  1.00 32.92     0.185 C 
ATOM     18  OE1 GLU D 570     -21.704  -7.855 -16.206  1.00 32.92    -0.647 OA
ATOM     19  OE2 GLU D 570     -22.083  -6.261 -14.753  1.00 32.92    -0.647 OA
ENDBRANCH  16  17
ENDBRANCH  15  16
ENDBRANCH  14  15
END_RES GLU D 570
ENDMDL
MODEL 6
REMARK VINA RESULT:      -6.6      2.564      4.262
REMARK WARNING: 32 MAX_TORS EXCEEDED!!!
REMARK  35 active torsions:
REMARK  status: ('A' for Active; 'I' for Inactive)
REMARK    1  A    between atoms: C_2  and  C_4 
REMARK    2  A    between atoms: C_4  and  C_5 
REMARK    3  A    between atoms: C_4  and  N_8 
REMARK       I    between atoms: C_5  and  N_7 
REMARK       I    between atoms: N_8  and  C_9 
REMARK    4  A    between atoms: C_9  and  C_11 
REMARK       I    between atoms: N_15  and  C_16 
REMARK    5  A    between atoms: C_16  and  C_18 
REMARK    6  A    between atoms: C_18  and  C_19 
REMARK    7  A    between atoms: C_18  and  N_24 
REMARK    8  A    between atoms: C_19  and  C_20 
REMARK    9  A    between atoms: C_20  and  C_21 
REMARK   10  A    between atoms: C_21  and  C_22 
REMARK   11  A    between atoms: C_22  and  N_23 
REMARK       I    between atoms: N_24  and  C_25 
REMARK   12  A    between atoms: C_25  and  C_27 
REMARK   13  A    between atoms: C_27  and  C_28 
REMARK   14  A    between atoms: C_27  and  N_35 
REMARK   15  A    between atoms: C_28  and  C_29 
REMARK       I    between atoms: N_35  and  C_36 
REMARK   16  A    between atoms: C_36  and  C_38 
REMARK   17  A    between atoms: C_38  and  C_39 
REMARK   18  A    between atoms: C_38  and  N_49 
REMARK   19  A    between atoms: C_39  and  C_40 
REMARK       I    between atoms: N_49  and  C_50 
REMARK   20  A    between atoms: C_50  and  C_52 
REMARK   21  A    between atoms: C_52  and  C_53 
REMARK   22  A    between atoms: C_52  and  N_61 
REMARK   23  A    between atoms: C_53  and  C_54 
REMARK   24  A    between atoms: C_54  and  C_55 
REMARK   25  A    between atoms: C_55  and  N_56 
REMARK       I    between atoms: C_58  and  N_59 
REMARK       I    between atoms: C_58  and  N_60 
REMARK       I    between atoms: N_61  and  C_62 
REMARK   26  A    between atoms: C_62  and  C_64 
REMARK   27  A    between atoms: C_64  and  C_65 
REMARK   28  A    between atoms: C_64  and  N_72 
REMARK   29  A    between atoms: C_65  and  C_66 
REMARK       I    between atoms: N_72  and  C_73 
REMARK   30  A    between atoms: C_73  and  C_75 
REMARK       I    between atoms: N_79  and  C_80 
REMARK   31  A    between atoms: C_80  and  C_82 
REMARK   32  A    between atoms: C_82  and  C_83 
REMARK   33  A    between atoms: C_82  and  N_87 
REMARK   34  A    between atoms: C_83  and  C_84 
REMARK   35  A    between atoms: C_84  and  S_85 
ROOT
HETATM    1  C   UNL     1     -22.050 -11.425  -1.072  1.00  0.00     0.181 C 
ENDROOT
BRANCH   1   2
HETATM    2  C   UNL     1     -21.556 -10.972  -2.508  1.00  0.00     0.241 C 
HETATM    3  N   UNL     1     -22.303 -11.321  -3.618  1.00  0.00    -0.346 N 
HETATM    4  H   UNL     1     -23.105 -11.930  -3.507  1.00  0.00     0.163 HD
HETATM    5  O   UNL     1     -20.506 -10.331  -2.631  1.00  0.00    -0.271 OA
BRANCH   3   6
HETATM    6  C   UNL     1     -21.895 -11.042  -5.023  1.00  0.00     0.180 C 
BRANCH   6   7
HETATM    7  C   UNL     1     -21.126  -9.659  -5.215  1.00  0.00     0.241 C 
HETATM    8  N   UNL     1     -21.803  -8.512  -4.782  1.00  0.00    -0.346 N 
HETATM    9  H   UNL     1     -22.768  -8.614  -4.498  1.00  0.00     0.163 HD
HETATM   10  O   UNL     1     -19.971  -9.654  -5.641  1.00  0.00    -0.271 OA
BRANCH   8  11
HETATM   11  C   UNL     1     -21.213  -7.150  -4.606  1.00  0.00     0.176 C 
BRANCH  11  12
HETATM   12  C   UNL     1     -21.553  -6.245  -5.787  1.00  0.00     0.243 C 
HETATM   13  N   UNL     1     -20.584  -5.531  -6.460  1.00  0.00    -0.337 N 
HETATM   14  C   UNL     1     -20.887  -4.193  -7.066  1.00  0.00     0.179 C 
HETATM   15  C   UNL     1     -19.147  -5.731  -6.399  1.00  0.00     0.127 C 
HETATM   16  C   UNL     1     -19.682  -3.983  -7.968  1.00  0.00     0.037 C 
HETATM   17  C   UNL     1     -18.517  -4.571  -7.183  1.00  0.00     0.022 C 
HETATM   18  O   UNL     1     -22.762  -5.997  -5.948  1.00  0.00    -0.271 OA
BRANCH  14  19
HETATM   19  C   UNL     1     -22.219  -4.041  -7.801  1.00  0.00     0.241 C 
HETATM   20  N   UNL     1     -22.119  -3.879  -9.186  1.00  0.00    -0.346 N 
HETATM   21  H   UNL     1     -21.245  -3.474  -9.506  1.00  0.00     0.163 HD
HETATM   22  O   UNL     1     -23.293  -4.058  -7.191  1.00  0.00    -0.271 OA
BRANCH  20  23
HETATM   23  C   UNL     1     -23.308  -3.533  -9.967  1.00  0.00     0.179 C 
BRANCH  23  24
HETATM   24  C   UNL     1     -23.089  -2.789 -11.307  1.00  0.00     0.009 C 
HETATM   25  C   UNL     1     -21.721  -3.108 -11.920  1.00  0.00     0.012 C 
HETATM   26  C   UNL     1     -24.141  -2.936 -12.407  1.00  0.00     0.012 C 
ENDBRANCH  23  24
BRANCH  23  27
HETATM   27  C   UNL     1     -24.178  -4.820 -10.099  1.00  0.00     0.238 C 
HETATM   28  O   UNL     1     -23.891  -5.813 -10.757  1.00  0.00    -0.271 OA
HETATM   29  N   UNL     1     -25.353  -4.784  -9.404  1.00  0.00    -0.368 N 
HETATM   30  H   UNL     1     -25.613  -3.961  -8.859  1.00  0.00     0.159 HD
HETATM   31  H   UNL     1     -25.983  -5.571  -9.442  1.00  0.00     0.159 HD
ENDBRANCH  23  27
ENDBRANCH  20  23
ENDBRANCH  14  19
ENDBRANCH  11  12
BRANCH  11  32
HETATM   32  C   UNL     1     -21.847  -6.435  -3.350  1.00  0.00     0.035 C 
BRANCH  32  33
HETATM   33  C   UNL     1     -22.230  -7.389  -2.174  1.00  0.00     0.004 C 
BRANCH  33  34
HETATM   34  C   UNL     1     -22.325  -6.753  -0.779  1.00  0.00     0.030 C 
BRANCH  34  35
HETATM   35  C   UNL     1     -22.143  -7.772   0.370  1.00  0.00     0.267 C 
BRANCH  35  36
HETATM   36  N   UNL     1     -20.952  -8.616   0.219  1.00  0.00     0.078 N 
HETATM   37  H   UNL     1     -21.185  -9.426  -0.354  1.00  0.00     0.312 HD
HETATM   38  H   UNL     1     -20.714  -9.004   1.137  1.00  0.00     0.312 HD
ENDBRANCH  35  36
ENDBRANCH  34  35
ENDBRANCH  33  34
ENDBRANCH  32  33
ENDBRANCH  11  32
ENDBRANCH   8  11
ENDBRANCH   6   7
BRANCH   6  39
HETATM   39  C   UNL     1     -21.192 -12.264  -5.658  1.00  0.00     0.073 C 
BRANCH  39  40
HETATM   40  C   UNL     1     -21.989 -13.485  -6.094  1.00  0.00    -0.056 A 
HETATM   41  C   UNL     1     -21.430 -14.613  -6.706  1.00  0.00     0.007 A 
HETATM   42  C   UNL     1     -22.212 -15.741  -6.982  1.00  0.00     0.001 A 
HETATM   43  C   UNL     1     -23.565 -15.758  -6.661  1.00  0.00     0.000 A 
HETATM   44  C   UNL     1     -24.151 -14.629  -6.099  1.00  0.00     0.001 A 
HETATM   45  C   UNL     1     -23.374 -13.499  -5.833  1.00  0.00     0.007 A 
ENDBRANCH  39  40
ENDBRANCH   6  39
ENDBRANCH   3   6
ENDBRANCH   1   2
BRANCH   1  46
HETATM   46  C   UNL     1     -23.495 -11.940  -1.013  1.00  0.00     0.075 C 
BRANCH  46  47
HETATM   47  C   UNL     1     -23.602 -13.413  -0.752  1.00  0.00    -0.028 C 
HETATM   48  C   UNL     1     -24.042 -14.386  -1.639  1.00  0.00     0.096 C 
HETATM   49  N   UNL     1     -23.924 -15.581  -0.989  1.00  0.00    -0.365 N 
HETATM   50  C   UNL     1     -24.077 -15.296   0.344  1.00  0.00     0.042 C 
HETATM   51  H   UNL     1     -23.259 -16.271  -1.308  1.00  0.00     0.165 HD
HETATM   52  C   UNL     1     -24.716 -15.979   1.369  1.00  0.00     0.030 C 
HETATM   53  C   UNL     1     -23.472 -14.058   0.517  1.00  0.00    -0.002 C 
HETATM   54  C   UNL     1     -24.571 -15.436   2.646  1.00  0.00     0.002 C 
HETATM   55  C   UNL     1     -23.709 -14.359   2.878  1.00  0.00     0.001 C 
HETATM   56  C   UNL     1     -23.131 -13.654   1.817  1.00  0.00     0.014 C 
ENDBRANCH  46  47
ENDBRANCH   1  46
BRANCH   1  57
HETATM   57  N   UNL     1     -21.062 -12.415  -0.596  1.00  0.00    -0.346 N 
HETATM   58  C   UNL     1     -20.511 -13.422  -1.352  1.00  0.00     0.241 C 
HETATM   59  O   UNL     1     -20.810 -13.652  -2.527  1.00  0.00    -0.271 OA
HETATM   60  H   UNL     1     -21.057 -12.534   0.412  1.00  0.00     0.163 HD
BRANCH  58  61
HETATM   61  C   UNL     1     -19.454 -14.314  -0.657  1.00  0.00     0.176 C 
BRANCH  61  62
HETATM   62  C   UNL     1     -18.611 -15.217  -1.581  1.00  0.00     0.036 C 
BRANCH  62  63
HETATM   63  C   UNL     1     -19.123 -15.304  -3.016  1.00  0.00     0.022 C 
BRANCH  63  64
HETATM   64  C   UNL     1     -19.318 -16.746  -3.462  1.00  0.00     0.121 C 
BRANCH  64  65
HETATM   65  N   UNL     1     -20.666 -16.883  -3.988  1.00  0.00    -0.372 N 
HETATM   66  C   UNL     1     -21.604 -17.055  -3.142  1.00  0.00     0.121 C 
HETATM   67  N   UNL     1     -21.559 -17.183  -1.800  1.00  0.00    -0.279 NA
HETATM   68  N   UNL     1     -22.885 -17.160  -3.575  1.00  0.00    -0.279 NA
HETATM   69  H   UNL     1     -20.669 -16.934  -1.392  1.00  0.00     0.126 HD
HETATM   70  H   UNL     1     -22.320 -16.701  -1.337  1.00  0.00     0.126 HD
HETATM   71  H   UNL     1     -22.894 -17.321  -4.578  1.00  0.00     0.126 HD
HETATM   72  H   UNL     1     -23.417 -17.870  -3.086  1.00  0.00     0.126 HD
ATOM     73  HN  UNL     1     -20.852 -16.842  -4.990  1.00  0.00     0.161 HD
ENDBRANCH  64  65
ENDBRANCH  63  64
ENDBRANCH  62  63
ENDBRANCH  61  62
BRANCH  61  74
HETATM   74  N   UNL     1     -18.694 -13.392   0.194  1.00  0.00    -0.346 N 
HETATM   75  C   UNL     1     -17.322 -13.439   0.084  1.00  0.00     0.241 C 
HETATM   76  O   UNL     1     -16.814 -14.365  -0.550  1.00  0.00    -0.271 OA
HETATM   77  H   UNL     1     -19.145 -12.524   0.451  1.00  0.00     0.163 HD
BRANCH  75  78
HETATM   78  C   UNL     1     -16.441 -12.319   0.684  1.00  0.00     0.180 C 
BRANCH  78  79
HETATM   79  C   UNL     1     -15.560 -12.687   1.904  1.00  0.00     0.073 C 
BRANCH  79  80
HETATM   80  C   UNL     1     -14.569 -13.834   1.851  1.00  0.00    -0.056 A 
HETATM   81  C   UNL     1     -13.407 -13.818   1.074  1.00  0.00     0.007 A 
HETATM   82  C   UNL     1     -12.501 -14.879   1.111  1.00  0.00     0.001 A 
HETATM   83  C   UNL     1     -12.740 -15.980   1.928  1.00  0.00     0.000 A 
HETATM   84  C   UNL     1     -13.913 -16.043   2.673  1.00  0.00     0.001 A 
HETATM   85  C   UNL     1     -14.828 -14.985   2.624  1.00  0.00     0.007 A 
ENDBRANCH  79  80
ENDBRANCH  78  79
BRANCH  78  86
HETATM   86  N   UNL     1     -15.702 -11.668  -0.425  1.00  0.00    -0.346 N 
HETATM   87  C   UNL     1     -16.412 -11.185  -1.534  1.00  0.00     0.241 C 
HETATM   88  O   UNL     1     -17.635 -11.049  -1.524  1.00  0.00    -0.271 OA
HETATM   89  H   UNL     1     -14.739 -11.943  -0.568  1.00  0.00     0.163 HD
BRANCH  87  90
HETATM   90  C   UNL     1     -15.545 -10.716  -2.736  1.00  0.00     0.179 C 
HETATM   91  C   UNL     1     -16.419  -9.697  -3.495  1.00  0.00     0.037 C 
HETATM   92  C   UNL     1     -15.850  -9.652  -4.902  1.00  0.00     0.022 C 
HETATM   93  C   UNL     1     -15.284 -11.043  -5.116  1.00  0.00     0.127 C 
HETATM   94  N   UNL     1     -15.265 -11.685  -3.806  1.00  0.00    -0.337 N 
HETATM   95  C   UNL     1     -14.709 -12.947  -3.596  1.00  0.00     0.253 C 
HETATM   96  O   UNL     1     -14.250 -13.289  -2.507  1.00  0.00    -0.271 OA
BRANCH  95  97
HETATM   97  C   UNL     1     -14.729 -13.899  -4.848  1.00  0.00     0.309 C 
BRANCH  97  98
HETATM   98  C   UNL     1     -16.043 -13.916  -5.661  1.00  0.00     0.055 C 
BRANCH  98  99
HETATM   99  C   UNL     1     -16.513 -15.319  -6.140  1.00  0.00     0.076 C 
BRANCH  99 100
HETATM  100  S   UNL     1     -17.569 -15.298  -7.645  1.00  0.00    -0.173 SA
HETATM  101  C   UNL     1     -17.761 -13.530  -7.962  1.00  0.00     0.089 C 
ENDBRANCH  99 100
ENDBRANCH  98  99
ENDBRANCH  97  98
BRANCH  97 102
HETATM  102  N   UNL     1     -13.606 -13.502  -5.729  1.00  0.00     0.092 N 
HETATM  103  H   UNL     1     -13.017 -12.844  -5.211  1.00  0.00     0.313 HD
HETATM  104  H   UNL     1     -13.989 -12.951  -6.503  1.00  0.00     0.313 HD
ENDBRANCH  97 102
ENDBRANCH  95  97
ENDBRANCH  87  90
ENDBRANCH  78  86
ENDBRANCH  75  78
ENDBRANCH  61  74
ENDBRANCH  58  61
ENDBRANCH   1  57
TORSDOF 35
BEGIN_RES ARG D 557
REMARK  4 active torsions:
REMARK  status: ('A' for Active; 'I' for Inactive)
REMARK    1  A    between atoms: CA   and  CB  
REMARK    2  A    between atoms: CB   and  CG  
REMARK    3  A    between atoms: CG   and  CD  
REMARK    4  A    between atoms: CD   and  NE  
REMARK       I    between atoms: NE   and  CZ  
REMARK       I    between atoms: CZ   and  NH1 
REMARK       I    between atoms: CZ   and  NH2 
ROOT
ATOM      1  CA  ARG D 557     -26.217   2.705 -17.014  1.00 35.49     0.159 C 
ENDROOT
BRANCH   1   2
ATOM      2  CB  ARG D 557     -26.789   1.319 -17.183  1.00 35.49     0.034 C 
BRANCH   2   3
ATOM      3  CG  ARG D 557     -26.201   0.257 -16.358  1.00 35.49     0.027 C 
BRANCH   3   4
ATOM      4  CD  ARG D 557     -27.145  -0.858 -16.117  1.00 35.49     0.116 C 
BRANCH   4   5
ATOM      5  NE  ARG D 557     -26.506  -1.985 -15.491  1.00 35.49    -0.212 N 
ATOM      6  CZ  ARG D 557     -26.823  -3.248 -15.672  1.00 35.49     0.666 C 
ATOM      7  NH1 ARG D 557     -27.809  -3.624 -16.467  1.00 35.49    -0.235 N 
ATOM      8  NH2 ARG D 557     -26.121  -4.141 -15.038  1.00 35.49    -0.235 N 
ATOM      9  HH  ARG D 557     -28.283  -3.053 -16.895  1.00 35.49     0.174 HD
ATOM     10  HH  ARG D 557     -27.969  -4.462 -16.548  1.00 35.49     0.174 HD
ATOM     11  HH  ARG D 557     -25.486  -3.869 -14.538  1.00 35.49     0.174 HD
ATOM     12  HH  ARG D 557     -26.294  -4.965 -15.133  1.00 35.49     0.174 HD
ATOM     13  HE  ARG D 557     -25.907  -1.831 -14.907  1.00 35.49     0.178 HD
ENDBRANCH   4   5
ENDBRANCH   3   4
ENDBRANCH   2   3
ENDBRANCH   1   2
END_RES ARG D 557
BEGIN_RES GLU D 570
REMARK  3 active torsions:
REMARK  status: ('A' for Active; 'I' for Inactive)
REMARK    5  A    between atoms: CA   and  CB  
REMARK    6  A    between atoms: CB   and  CG  
REMARK    7  A    between atoms: CG   and  CD  
ROOT
ATOM     14  CA  GLU D 570     -18.033  -6.348 -13.375  1.00 32.92     0.160 C 
ENDROOT
BRANCH  14  15
ATOM     15  CB  GLU D 570     -19.500  -6.345 -13.794  1.00 32.92     0.043 C 
BRANCH  15  16
ATOM     16  CG  GLU D 570     -19.813  -5.940 -15.189  1.00 32.92     0.100 C 
BRANCH  16  17
ATOM     17  CD  GLU D 570     -21.258  -5.541 -15.377  1.00 32.92     0.185 C 
ATOM     18  OE1 GLU D 570     -22.033  -5.598 -14.403  1.00 32.92    -0.647 OA
ATOM     19  OE2 GLU D 570     -21.622  -5.183 -16.514  1.00 32.92    -0.647 OA
ENDBRANCH  16  17
ENDBRANCH  15  16
ENDBRANCH  14  15
END_RES GLU D 570
ENDMDL
MODEL 7
REMARK VINA RESULT:      -6.5      1.973      4.249
REMARK WARNING: 32 MAX_TORS EXCEEDED!!!
REMARK  35 active torsions:
REMARK  status: ('A' for Active; 'I' for Inactive)
REMARK    1  A    between atoms: C_2  and  C_4 
REMARK    2  A    between atoms: C_4  and  C_5 
REMARK    3  A    between atoms: C_4  and  N_8 
REMARK       I    between atoms: C_5  and  N_7 
REMARK       I    between atoms: N_8  and  C_9 
REMARK    4  A    between atoms: C_9  and  C_11 
REMARK       I    between atoms: N_15  and  C_16 
REMARK    5  A    between atoms: C_16  and  C_18 
REMARK    6  A    between atoms: C_18  and  C_19 
REMARK    7  A    between atoms: C_18  and  N_24 
REMARK    8  A    between atoms: C_19  and  C_20 
REMARK    9  A    between atoms: C_20  and  C_21 
REMARK   10  A    between atoms: C_21  and  C_22 
REMARK   11  A    between atoms: C_22  and  N_23 
REMARK       I    between atoms: N_24  and  C_25 
REMARK   12  A    between atoms: C_25  and  C_27 
REMARK   13  A    between atoms: C_27  and  C_28 
REMARK   14  A    between atoms: C_27  and  N_35 
REMARK   15  A    between atoms: C_28  and  C_29 
REMARK       I    between atoms: N_35  and  C_36 
REMARK   16  A    between atoms: C_36  and  C_38 
REMARK   17  A    between atoms: C_38  and  C_39 
REMARK   18  A    between atoms: C_38  and  N_49 
REMARK   19  A    between atoms: C_39  and  C_40 
REMARK       I    between atoms: N_49  and  C_50 
REMARK   20  A    between atoms: C_50  and  C_52 
REMARK   21  A    between atoms: C_52  and  C_53 
REMARK   22  A    between atoms: C_52  and  N_61 
REMARK   23  A    between atoms: C_53  and  C_54 
REMARK   24  A    between atoms: C_54  and  C_55 
REMARK   25  A    between atoms: C_55  and  N_56 
REMARK       I    between atoms: C_58  and  N_59 
REMARK       I    between atoms: C_58  and  N_60 
REMARK       I    between atoms: N_61  and  C_62 
REMARK   26  A    between atoms: C_62  and  C_64 
REMARK   27  A    between atoms: C_64  and  C_65 
REMARK   28  A    between atoms: C_64  and  N_72 
REMARK   29  A    between atoms: C_65  and  C_66 
REMARK       I    between atoms: N_72  and  C_73 
REMARK   30  A    between atoms: C_73  and  C_75 
REMARK       I    between atoms: N_79  and  C_80 
REMARK   31  A    between atoms: C_80  and  C_82 
REMARK   32  A    between atoms: C_82  and  C_83 
REMARK   33  A    between atoms: C_82  and  N_87 
REMARK   34  A    between atoms: C_83  and  C_84 
REMARK   35  A    between atoms: C_84  and  S_85 
ROOT
HETATM    1  C   UNL     1     -20.826 -11.529  -1.485  1.00  0.00     0.181 C 
ENDROOT
BRANCH   1   2
HETATM    2  C   UNL     1     -20.684 -10.750  -2.858  1.00  0.00     0.241 C 
HETATM    3  N   UNL     1     -21.128 -11.351  -4.022  1.00  0.00    -0.346 N 
HETATM    4  H   UNL     1     -21.456 -12.308  -3.994  1.00  0.00     0.163 HD
HETATM    5  O   UNL     1     -20.166  -9.628  -2.886  1.00  0.00    -0.271 OA
BRANCH   3   6
HETATM    6  C   UNL     1     -20.961 -10.767  -5.382  1.00  0.00     0.180 C 
BRANCH   6   7
HETATM    7  C   UNL     1     -20.547  -9.227  -5.382  1.00  0.00     0.241 C 
HETATM    8  N   UNL     1     -21.556  -8.318  -5.040  1.00  0.00    -0.346 N 
HETATM    9  H   UNL     1     -22.497  -8.675  -4.940  1.00  0.00     0.163 HD
HETATM   10  O   UNL     1     -19.377  -8.906  -5.590  1.00  0.00    -0.271 OA
BRANCH   8  11
HETATM   11  C   UNL     1     -21.369  -6.872  -4.712  1.00  0.00     0.176 C 
BRANCH  11  12
HETATM   12  C   UNL     1     -21.654  -5.990  -5.926  1.00  0.00     0.243 C 
HETATM   13  N   UNL     1     -20.642  -5.371  -6.630  1.00  0.00    -0.337 N 
HETATM   14  C   UNL     1     -20.855  -4.039  -7.285  1.00  0.00     0.179 C 
HETATM   15  C   UNL     1     -19.222  -5.669  -6.566  1.00  0.00     0.127 C 
HETATM   16  C   UNL     1     -19.645  -3.948  -8.199  1.00  0.00     0.037 C 
HETATM   17  C   UNL     1     -18.518  -4.586  -7.397  1.00  0.00     0.022 C 
HETATM   18  O   UNL     1     -22.843  -5.664  -6.091  1.00  0.00    -0.271 OA
BRANCH  14  19
HETATM   19  C   UNL     1     -22.178  -3.822  -8.020  1.00  0.00     0.241 C 
HETATM   20  N   UNL     1     -22.084  -3.780  -9.414  1.00  0.00    -0.346 N 
HETATM   21  H   UNL     1     -21.181  -3.484  -9.771  1.00  0.00     0.163 HD
HETATM   22  O   UNL     1     -23.240  -3.692  -7.402  1.00  0.00    -0.271 OA
BRANCH  20  23
HETATM   23  C   UNL     1     -23.248  -3.387 -10.210  1.00  0.00     0.179 C 
BRANCH  23  24
HETATM   24  C   UNL     1     -22.987  -2.878 -11.649  1.00  0.00     0.009 C 
HETATM   25  C   UNL     1     -21.877  -3.674 -12.344  1.00  0.00     0.012 C 
HETATM   26  C   UNL     1     -24.168  -2.780 -12.617  1.00  0.00     0.012 C 
ENDBRANCH  23  24
BRANCH  23  27
HETATM   27  C   UNL     1     -24.286  -4.547 -10.134  1.00  0.00     0.238 C 
HETATM   28  O   UNL     1     -25.441  -4.448  -9.736  1.00  0.00    -0.271 OA
HETATM   29  N   UNL     1     -23.817  -5.758 -10.555  1.00  0.00    -0.368 N 
HETATM   30  H   UNL     1     -22.854  -5.861 -10.879  1.00  0.00     0.159 HD
HETATM   31  H   UNL     1     -24.419  -6.567 -10.529  1.00  0.00     0.159 HD
ENDBRANCH  23  27
ENDBRANCH  20  23
ENDBRANCH  14  19
ENDBRANCH  11  12
BRANCH  11  32
HETATM   32  C   UNL     1     -22.418  -6.416  -3.624  1.00  0.00     0.035 C 
BRANCH  32  33
HETATM   33  C   UNL     1     -21.875  -6.388  -2.160  1.00  0.00     0.004 C 
BRANCH  33  34
HETATM   34  C   UNL     1     -22.098  -7.656  -1.322  1.00  0.00     0.030 C 
BRANCH  34  35
HETATM   35  C   UNL     1     -22.437  -7.359   0.157  1.00  0.00     0.267 C 
BRANCH  35  36
HETATM   36  N   UNL     1     -23.581  -8.129   0.661  1.00  0.00     0.078 N 
HETATM   37  H   UNL     1     -24.142  -7.536   1.271  1.00  0.00     0.312 HD
HETATM   38  H   UNL     1     -23.226  -8.872   1.270  1.00  0.00     0.312 HD
ENDBRANCH  35  36
ENDBRANCH  34  35
ENDBRANCH  33  34
ENDBRANCH  32  33
ENDBRANCH  11  32
ENDBRANCH   8  11
ENDBRANCH   6   7
BRANCH   6  39
HETATM   39  C   UNL     1     -20.082 -11.670  -6.279  1.00  0.00     0.073 C 
BRANCH  39  40
HETATM   40  C   UNL     1     -18.609 -11.887  -5.965  1.00  0.00    -0.056 A 
HETATM   41  C   UNL     1     -17.621 -12.096  -6.933  1.00  0.00     0.007 A 
HETATM   42  C   UNL     1     -16.271 -12.183  -6.574  1.00  0.00     0.001 A 
HETATM   43  C   UNL     1     -15.886 -12.072  -5.241  1.00  0.00     0.000 A 
HETATM   44  C   UNL     1     -16.858 -11.917  -4.258  1.00  0.00     0.001 A 
HETATM   45  C   UNL     1     -18.206 -11.840  -4.615  1.00  0.00     0.007 A 
ENDBRANCH  39  40
ENDBRANCH   6  39
ENDBRANCH   3   6
ENDBRANCH   1   2
BRANCH   1  46
HETATM   46  C   UNL     1     -22.252 -11.601  -0.922  1.00  0.00     0.075 C 
BRANCH  46  47
HETATM   47  C   UNL     1     -22.772 -13.000  -0.769  1.00  0.00    -0.028 C 
HETATM   48  C   UNL     1     -23.614 -13.676  -1.640  1.00  0.00     0.096 C 
HETATM   49  N   UNL     1     -23.779 -14.929  -1.122  1.00  0.00    -0.365 N 
HETATM   50  C   UNL     1     -23.643 -14.790   0.237  1.00  0.00     0.042 C 
HETATM   51  H   UNL     1     -23.414 -15.734  -1.609  1.00  0.00     0.165 HD
HETATM   52  C   UNL     1     -24.307 -15.386   1.300  1.00  0.00     0.030 C 
HETATM   53  C   UNL     1     -22.666 -13.816   0.400  1.00  0.00    -0.002 C 
HETATM   54  C   UNL     1     -23.818 -15.082   2.570  1.00  0.00     0.002 C 
HETATM   55  C   UNL     1     -22.642 -14.344   2.733  1.00  0.00     0.001 C 
HETATM   56  C   UNL     1     -22.032 -13.705   1.647  1.00  0.00     0.014 C 
ENDBRANCH  46  47
ENDBRANCH   1  46
BRANCH   1  57
HETATM   57  N   UNL     1     -20.223 -12.859  -1.709  1.00  0.00    -0.346 N 
HETATM   58  C   UNL     1     -18.975 -13.252  -1.288  1.00  0.00     0.241 C 
HETATM   59  O   UNL     1     -18.177 -12.518  -0.699  1.00  0.00    -0.271 OA
HETATM   60  H   UNL     1     -20.634 -13.367  -2.485  1.00  0.00     0.163 HD
BRANCH  58  61
HETATM   61  C   UNL     1     -18.568 -14.714  -1.591  1.00  0.00     0.176 C 
BRANCH  61  62
HETATM   62  C   UNL     1     -19.382 -15.434  -2.687  1.00  0.00     0.036 C 
BRANCH  62  63
HETATM   63  C   UNL     1     -18.889 -15.180  -4.109  1.00  0.00     0.022 C 
BRANCH  63  64
HETATM   64  C   UNL     1     -19.894 -15.654  -5.150  1.00  0.00     0.121 C 
BRANCH  64  65
HETATM   65  N   UNL     1     -21.160 -15.901  -4.482  1.00  0.00    -0.372 N 
HETATM   66  C   UNL     1     -22.201 -15.379  -5.003  1.00  0.00     0.121 C 
HETATM   67  N   UNL     1     -22.332 -14.572  -6.075  1.00  0.00    -0.279 NA
HETATM   68  N   UNL     1     -23.414 -15.600  -4.438  1.00  0.00    -0.279 NA
HETATM   69  H   UNL     1     -21.503 -14.512  -6.650  1.00  0.00     0.126 HD
HETATM   70  H   UNL     1     -23.147 -14.795  -6.633  1.00  0.00     0.126 HD
HETATM   71  H   UNL     1     -23.292 -15.984  -3.505  1.00  0.00     0.126 HD
HETATM   72  H   UNL     1     -24.005 -14.777  -4.420  1.00  0.00     0.126 HD
ATOM     73  HN  UNL     1     -21.215 -16.468  -3.636  1.00  0.00     0.161 HD
ENDBRANCH  64  65
ENDBRANCH  63  64
ENDBRANCH  62  63
ENDBRANCH  61  62
BRANCH  61  74
HETATM   74  N   UNL     1     -17.119 -14.658  -1.811  1.00  0.00    -0.346 N 
HETATM   75  C   UNL     1     -16.378 -15.711  -1.322  1.00  0.00     0.241 C 
HETATM   76  O   UNL     1     -16.928 -16.518  -0.570  1.00  0.00    -0.271 OA
HETATM   77  H   UNL     1     -16.796 -14.157  -2.629  1.00  0.00     0.163 HD
BRANCH  75  78
HETATM   78  C   UNL     1     -14.910 -15.918  -1.760  1.00  0.00     0.180 C 
BRANCH  78  79
HETATM   79  C   UNL     1     -14.388 -15.039  -2.924  1.00  0.00     0.073 C 
BRANCH  79  80
HETATM   80  C   UNL     1     -13.782 -15.653  -4.172  1.00  0.00    -0.056 A 
HETATM   81  C   UNL     1     -14.322 -15.494  -5.452  1.00  0.00     0.007 A 
HETATM   82  C   UNL     1     -13.687 -16.032  -6.572  1.00  0.00     0.001 A 
HETATM   83  C   UNL     1     -12.498 -16.741  -6.434  1.00  0.00     0.000 A 
HETATM   84  C   UNL     1     -11.967 -16.956  -5.167  1.00  0.00     0.001 A 
HETATM   85  C   UNL     1     -12.611 -16.428  -4.043  1.00  0.00     0.007 A 
ENDBRANCH  79  80
ENDBRANCH  78  79
BRANCH  78  86
HETATM   86  N   UNL     1     -14.057 -15.889  -0.547  1.00  0.00    -0.346 N 
HETATM   87  C   UNL     1     -13.877 -14.679   0.138  1.00  0.00     0.241 C 
HETATM   88  O   UNL     1     -14.585 -13.693  -0.068  1.00  0.00    -0.271 OA
HETATM   89  H   UNL     1     -13.324 -16.582  -0.477  1.00  0.00     0.163 HD
BRANCH  87  90
HETATM   90  C   UNL     1     -12.804 -14.696   1.263  1.00  0.00     0.179 C 
HETATM   91  C   UNL     1     -11.611 -15.478   0.678  1.00  0.00     0.037 C 
HETATM   92  C   UNL     1     -10.824 -15.966   1.882  1.00  0.00     0.022 C 
HETATM   93  C   UNL     1     -11.874 -16.139   2.964  1.00  0.00     0.127 C 
HETATM   94  N   UNL     1     -13.083 -15.486   2.471  1.00  0.00    -0.337 N 
HETATM   95  C   UNL     1     -14.234 -15.355   3.247  1.00  0.00     0.253 C 
HETATM   96  O   UNL     1     -15.040 -14.441   3.076  1.00  0.00    -0.271 OA
BRANCH  95  97
HETATM   97  C   UNL     1     -14.429 -16.468   4.342  1.00  0.00     0.309 C 
BRANCH  97  98
HETATM   98  C   UNL     1     -14.455 -15.976   5.806  1.00  0.00     0.055 C 
BRANCH  98  99
HETATM   99  C   UNL     1     -13.818 -16.941   6.846  1.00  0.00     0.076 C 
BRANCH  99 100
HETATM  100  S   UNL     1     -11.985 -17.061   6.756  1.00  0.00    -0.173 SA
HETATM  101  C   UNL     1     -11.487 -15.329   6.630  1.00  0.00     0.089 C 
ENDBRANCH  99 100
ENDBRANCH  98  99
ENDBRANCH  97  98
BRANCH  97 102
HETATM  102  N   UNL     1     -15.691 -17.180   4.035  1.00  0.00     0.092 N 
HETATM  103  H   UNL     1     -16.090 -16.764   3.190  1.00  0.00     0.313 HD
HETATM  104  H   UNL     1     -16.367 -16.962   4.774  1.00  0.00     0.313 HD
ENDBRANCH  97 102
ENDBRANCH  95  97
ENDBRANCH  87  90
ENDBRANCH  78  86
ENDBRANCH  75  78
ENDBRANCH  61  74
ENDBRANCH  58  61
ENDBRANCH   1  57
TORSDOF 35
BEGIN_RES ARG D 557
REMARK  4 active torsions:
REMARK  status: ('A' for Active; 'I' for Inactive)
REMARK    1  A    between atoms: CA   and  CB  
REMARK    2  A    between atoms: CB   and  CG  
REMARK    3  A    between atoms: CG   and  CD  
REMARK    4  A    between atoms: CD   and  NE  
REMARK       I    between atoms: NE   and  CZ  
REMARK       I    between atoms: CZ   and  NH1 
REMARK       I    between atoms: CZ   and  NH2 
ROOT
ATOM      1  CA  ARG D 557     -26.217   2.705 -17.014  1.00 35.49     0.159 C 
ENDROOT
BRANCH   1   2
ATOM      2  CB  ARG D 557     -26.789   1.319 -17.183  1.00 35.49     0.034 C 
BRANCH   2   3
ATOM      3  CG  ARG D 557     -28.150   1.100 -16.679  1.00 35.49     0.027 C 
BRANCH   3   4
ATOM      4  CD  ARG D 557     -28.794  -0.086 -17.289  1.00 35.49     0.116 C 
BRANCH   4   5
ATOM      5  NE  ARG D 557     -28.171  -1.315 -16.873  1.00 35.49    -0.212 N 
ATOM      6  CZ  ARG D 557     -28.649  -2.523 -17.069  1.00 35.49     0.666 C 
ATOM      7  NH1 ARG D 557     -29.800  -2.740 -17.677  1.00 35.49    -0.235 N 
ATOM      8  NH2 ARG D 557     -27.938  -3.527 -16.643  1.00 35.49    -0.235 N 
ATOM      9  HH  ARG D 557     -30.284  -2.095 -17.968  1.00 35.49     0.174 HD
ATOM     10  HH  ARG D 557     -30.061  -3.550 -17.779  1.00 35.49     0.174 HD
ATOM     11  HH  ARG D 557     -27.195  -3.357 -16.260  1.00 35.49     0.174 HD
ATOM     12  HH  ARG D 557     -28.212  -4.321 -16.754  1.00 35.49     0.174 HD
ATOM     13  HE  ARG D 557     -27.460  -1.265 -16.409  1.00 35.49     0.178 HD
ENDBRANCH   4   5
ENDBRANCH   3   4
ENDBRANCH   2   3
ENDBRANCH   1   2
END_RES ARG D 557
BEGIN_RES GLU D 570
REMARK  3 active torsions:
REMARK  status: ('A' for Active; 'I' for Inactive)
REMARK    5  A    between atoms: CA   and  CB  
REMARK    6  A    between atoms: CB   and  CG  
REMARK    7  A    between atoms: CG   and  CD  
ROOT
ATOM     14  CA  GLU D 570     -18.033  -6.348 -13.375  1.00 32.92     0.160 C 
ENDROOT
BRANCH  14  15
ATOM     15  CB  GLU D 570     -19.500  -6.345 -13.794  1.00 32.92     0.043 C 
BRANCH  15  16
ATOM     16  CG  GLU D 570     -19.797  -6.245 -15.246  1.00 32.92     0.100 C 
BRANCH  16  17
ATOM     17  CD  GLU D 570     -20.779  -7.292 -15.720  1.00 32.92     0.185 C 
ATOM     18  OE1 GLU D 570     -20.587  -8.484 -15.414  1.00 32.92    -0.647 OA
ATOM     19  OE2 GLU D 570     -21.740  -6.917 -16.420  1.00 32.92    -0.647 OA
ENDBRANCH  16  17
ENDBRANCH  15  16
ENDBRANCH  14  15
END_RES GLU D 570
ENDMDL
MODEL 8
REMARK VINA RESULT:      -6.2      2.634      4.469
REMARK WARNING: 32 MAX_TORS EXCEEDED!!!
REMARK  35 active torsions:
REMARK  status: ('A' for Active; 'I' for Inactive)
REMARK    1  A    between atoms: C_2  and  C_4 
REMARK    2  A    between atoms: C_4  and  C_5 
REMARK    3  A    between atoms: C_4  and  N_8 
REMARK       I    between atoms: C_5  and  N_7 
REMARK       I    between atoms: N_8  and  C_9 
REMARK    4  A    between atoms: C_9  and  C_11 
REMARK       I    between atoms: N_15  and  C_16 
REMARK    5  A    between atoms: C_16  and  C_18 
REMARK    6  A    between atoms: C_18  and  C_19 
REMARK    7  A    between atoms: C_18  and  N_24 
REMARK    8  A    between atoms: C_19  and  C_20 
REMARK    9  A    between atoms: C_20  and  C_21 
REMARK   10  A    between atoms: C_21  and  C_22 
REMARK   11  A    between atoms: C_22  and  N_23 
REMARK       I    between atoms: N_24  and  C_25 
REMARK   12  A    between atoms: C_25  and  C_27 
REMARK   13  A    between atoms: C_27  and  C_28 
REMARK   14  A    between atoms: C_27  and  N_35 
REMARK   15  A    between atoms: C_28  and  C_29 
REMARK       I    between atoms: N_35  and  C_36 
REMARK   16  A    between atoms: C_36  and  C_38 
REMARK   17  A    between atoms: C_38  and  C_39 
REMARK   18  A    between atoms: C_38  and  N_49 
REMARK   19  A    between atoms: C_39  and  C_40 
REMARK       I    between atoms: N_49  and  C_50 
REMARK   20  A    between atoms: C_50  and  C_52 
REMARK   21  A    between atoms: C_52  and  C_53 
REMARK   22  A    between atoms: C_52  and  N_61 
REMARK   23  A    between atoms: C_53  and  C_54 
REMARK   24  A    between atoms: C_54  and  C_55 
REMARK   25  A    between atoms: C_55  and  N_56 
REMARK       I    between atoms: C_58  and  N_59 
REMARK       I    between atoms: C_58  and  N_60 
REMARK       I    between atoms: N_61  and  C_62 
REMARK   26  A    between atoms: C_62  and  C_64 
REMARK   27  A    between atoms: C_64  and  C_65 
REMARK   28  A    between atoms: C_64  and  N_72 
REMARK   29  A    between atoms: C_65  and  C_66 
REMARK       I    between atoms: N_72  and  C_73 
REMARK   30  A    between atoms: C_73  and  C_75 
REMARK       I    between atoms: N_79  and  C_80 
REMARK   31  A    between atoms: C_80  and  C_82 
REMARK   32  A    between atoms: C_82  and  C_83 
REMARK   33  A    between atoms: C_82  and  N_87 
REMARK   34  A    between atoms: C_83  and  C_84 
REMARK   35  A    between atoms: C_84  and  S_85 
ROOT
HETATM    1  C   UNL     1     -22.000 -11.404  -0.910  1.00  0.00     0.181 C 
ENDROOT
BRANCH   1   2
HETATM    2  C   UNL     1     -21.490 -11.028  -2.363  1.00  0.00     0.241 C 
HETATM    3  N   UNL     1     -22.332 -11.222  -3.443  1.00  0.00    -0.346 N 
HETATM    4  H   UNL     1     -23.225 -11.679  -3.302  1.00  0.00     0.163 HD
HETATM    5  O   UNL     1     -20.349 -10.584  -2.526  1.00  0.00    -0.271 OA
BRANCH   3   6
HETATM    6  C   UNL     1     -21.938 -11.002  -4.862  1.00  0.00     0.180 C 
BRANCH   6   7
HETATM    7  C   UNL     1     -21.169  -9.629  -5.118  1.00  0.00     0.241 C 
HETATM    8  N   UNL     1     -21.817  -8.468  -4.677  1.00  0.00    -0.346 N 
HETATM    9  H   UNL     1     -22.768  -8.557  -4.346  1.00  0.00     0.163 HD
HETATM   10  O   UNL     1     -20.034  -9.642  -5.598  1.00  0.00    -0.271 OA
BRANCH   8  11
HETATM   11  C   UNL     1     -21.209  -7.108  -4.556  1.00  0.00     0.176 C 
BRANCH  11  12
HETATM   12  C   UNL     1     -21.493  -6.266  -5.798  1.00  0.00     0.243 C 
HETATM   13  N   UNL     1     -20.487  -5.620  -6.486  1.00  0.00    -0.337 N 
HETATM   14  C   UNL     1     -20.735  -4.312  -7.177  1.00  0.00     0.179 C 
HETATM   15  C   UNL     1     -19.058  -5.855  -6.374  1.00  0.00     0.127 C 
HETATM   16  C   UNL     1     -19.503  -4.190  -8.057  1.00  0.00     0.037 C 
HETATM   17  C   UNL     1     -18.376  -4.762  -7.207  1.00  0.00     0.022 C 
HETATM   18  O   UNL     1     -22.689  -5.994  -6.005  1.00  0.00    -0.271 OA
BRANCH  14  19
HETATM   19  C   UNL     1     -22.043  -4.168  -7.955  1.00  0.00     0.241 C 
HETATM   20  N   UNL     1     -21.908  -4.145  -9.346  1.00  0.00    -0.346 N 
HETATM   21  H   UNL     1     -21.009  -3.815  -9.682  1.00  0.00     0.163 HD
HETATM   22  O   UNL     1     -23.129  -4.075  -7.373  1.00  0.00    -0.271 OA
BRANCH  20  23
HETATM   23  C   UNL     1     -23.063  -3.819 -10.185  1.00  0.00     0.179 C 
BRANCH  23  24
HETATM   24  C   UNL     1     -22.795  -3.510 -11.678  1.00  0.00     0.009 C 
HETATM   25  C   UNL     1     -21.848  -2.318 -11.853  1.00  0.00     0.012 C 
HETATM   26  C   UNL     1     -22.298  -4.640 -12.583  1.00  0.00     0.012 C 
ENDBRANCH  23  24
BRANCH  23  27
HETATM   27  C   UNL     1     -24.140  -4.922  -9.956  1.00  0.00     0.238 C 
HETATM   28  O   UNL     1     -23.988  -6.122 -10.152  1.00  0.00    -0.271 OA
HETATM   29  N   UNL     1     -25.341  -4.458  -9.501  1.00  0.00    -0.368 N 
HETATM   30  H   UNL     1     -25.489  -3.460  -9.342  1.00  0.00     0.159 HD
HETATM   31  H   UNL     1     -26.099  -5.101  -9.336  1.00  0.00     0.159 HD
ENDBRANCH  23  27
ENDBRANCH  20  23
ENDBRANCH  14  19
ENDBRANCH  11  12
BRANCH  11  32
HETATM   32  C   UNL     1     -21.873  -6.314  -3.365  1.00  0.00     0.035 C 
BRANCH  32  33
HETATM   33  C   UNL     1     -22.361  -7.200  -2.176  1.00  0.00     0.004 C 
BRANCH  33  34
HETATM   34  C   UNL     1     -22.047  -6.685  -0.763  1.00  0.00     0.030 C 
BRANCH  34  35
HETATM   35  C   UNL     1     -22.159  -7.777   0.325  1.00  0.00     0.267 C 
BRANCH  35  36
HETATM   36  N   UNL     1     -23.537  -8.213   0.576  1.00  0.00     0.078 N 
HETATM   37  H   UNL     1     -23.853  -8.793  -0.201  1.00  0.00     0.312 HD
HETATM   38  H   UNL     1     -24.145  -7.389   0.553  1.00  0.00     0.312 HD
ENDBRANCH  35  36
ENDBRANCH  34  35
ENDBRANCH  33  34
ENDBRANCH  32  33
ENDBRANCH  11  32
ENDBRANCH   8  11
ENDBRANCH   6   7
BRANCH   6  39
HETATM   39  C   UNL     1     -21.242 -12.251  -5.453  1.00  0.00     0.073 C 
BRANCH  39  40
HETATM   40  C   UNL     1     -22.014 -13.542  -5.677  1.00  0.00    -0.056 A 
HETATM   41  C   UNL     1     -23.371 -13.600  -6.014  1.00  0.00     0.007 A 
HETATM   42  C   UNL     1     -23.987 -14.823  -6.307  1.00  0.00     0.001 A 
HETATM   43  C   UNL     1     -23.260 -16.008  -6.258  1.00  0.00     0.000 A 
HETATM   44  C   UNL     1     -21.924 -15.979  -5.874  1.00  0.00     0.001 A 
HETATM   45  C   UNL     1     -21.312 -14.760  -5.572  1.00  0.00     0.007 A 
ENDBRANCH  39  40
ENDBRANCH   6  39
ENDBRANCH   3   6
ENDBRANCH   1   2
BRANCH   1  46
HETATM   46  C   UNL     1     -23.457 -11.884  -0.835  1.00  0.00     0.075 C 
BRANCH  46  47
HETATM   47  C   UNL     1     -23.597 -13.368  -0.668  1.00  0.00    -0.028 C 
HETATM   48  C   UNL     1     -24.056 -14.272  -1.615  1.00  0.00     0.096 C 
HETATM   49  N   UNL     1     -23.966 -15.509  -1.043  1.00  0.00    -0.365 N 
HETATM   50  C   UNL     1     -24.117 -15.305   0.306  1.00  0.00     0.042 C 
HETATM   51  H   UNL     1     -23.316 -16.192  -1.404  1.00  0.00     0.165 HD
HETATM   52  C   UNL     1     -24.773 -16.038   1.285  1.00  0.00     0.030 C 
HETATM   53  C   UNL     1     -23.485 -14.095   0.558  1.00  0.00    -0.002 C 
HETATM   54  C   UNL     1     -24.620 -15.580   2.593  1.00  0.00     0.002 C 
HETATM   55  C   UNL     1     -23.735 -14.540   2.895  1.00  0.00     0.001 C 
HETATM   56  C   UNL     1     -23.138 -13.781   1.881  1.00  0.00     0.014 C 
ENDBRANCH  46  47
ENDBRANCH   1  46
BRANCH   1  57
HETATM   57  N   UNL     1     -21.036 -12.394  -0.386  1.00  0.00    -0.346 N 
HETATM   58  C   UNL     1     -20.472 -13.420  -1.106  1.00  0.00     0.241 C 
HETATM   59  O   UNL     1     -20.736 -13.669  -2.284  1.00  0.00    -0.271 OA
HETATM   60  H   UNL     1     -21.063 -12.494   0.624  1.00  0.00     0.163 HD
BRANCH  58  61
HETATM   61  C   UNL     1     -19.445 -14.307  -0.361  1.00  0.00     0.176 C 
BRANCH  61  62
HETATM   62  C   UNL     1     -18.859 -15.488  -1.163  1.00  0.00     0.036 C 
BRANCH  62  63
HETATM   63  C   UNL     1     -18.046 -16.476  -0.329  1.00  0.00     0.022 C 
BRANCH  63  64
HETATM   64  C   UNL     1     -16.977 -17.171  -1.158  1.00  0.00     0.121 C 
BRANCH  64  65
HETATM   65  N   UNL     1     -15.752 -16.396  -1.067  1.00  0.00    -0.372 N 
HETATM   66  C   UNL     1     -14.960 -16.443  -2.065  1.00  0.00     0.121 C 
HETATM   67  N   UNL     1     -15.040 -17.147  -3.213  1.00  0.00    -0.279 NA
HETATM   68  N   UNL     1     -13.814 -15.717  -2.047  1.00  0.00    -0.279 NA
HETATM   69  H   UNL     1     -15.945 -17.564  -3.378  1.00  0.00     0.126 HD
HETATM   70  H   UNL     1     -14.732 -16.615  -4.018  1.00  0.00     0.126 HD
HETATM   71  H   UNL     1     -13.629 -15.397  -1.100  1.00  0.00     0.126 HD
HETATM   72  H   UNL     1     -13.018 -16.212  -2.428  1.00  0.00     0.126 HD
ATOM     73  HN  UNL     1     -15.535 -15.838  -0.241  1.00  0.00     0.161 HD
ENDBRANCH  64  65
ENDBRANCH  63  64
ENDBRANCH  62  63
ENDBRANCH  61  62
BRANCH  61  74
HETATM   74  N   UNL     1     -18.464 -13.362   0.183  1.00  0.00    -0.346 N 
HETATM   75  C   UNL     1     -17.411 -13.023  -0.637  1.00  0.00     0.241 C 
HETATM   76  O   UNL     1     -17.241 -13.667  -1.674  1.00  0.00    -0.271 OA
HETATM   77  H   UNL     1     -18.796 -12.698   0.870  1.00  0.00     0.163 HD
BRANCH  75  78
HETATM   78  C   UNL     1     -16.503 -11.817  -0.303  1.00  0.00     0.180 C 
BRANCH  78  79
HETATM   79  C   UNL     1     -15.652 -11.908   0.988  1.00  0.00     0.073 C 
BRANCH  79  80
HETATM   80  C   UNL     1     -15.195 -13.242   1.546  1.00  0.00    -0.056 A 
HETATM   81  C   UNL     1     -15.884 -13.942   2.541  1.00  0.00     0.007 A 
HETATM   82  C   UNL     1     -15.448 -15.195   2.974  1.00  0.00     0.001 A 
HETATM   83  C   UNL     1     -14.311 -15.774   2.418  1.00  0.00     0.000 A 
HETATM   84  C   UNL     1     -13.579 -15.077   1.463  1.00  0.00     0.001 A 
HETATM   85  C   UNL     1     -14.009 -13.815   1.040  1.00  0.00     0.007 A 
ENDBRANCH  79  80
ENDBRANCH  78  79
BRANCH  78  86
HETATM   86  N   UNL     1     -15.727 -11.471  -1.518  1.00  0.00    -0.346 N 
HETATM   87  C   UNL     1     -16.323 -10.680  -2.511  1.00  0.00     0.241 C 
HETATM   88  O   UNL     1     -17.364 -10.052  -2.317  1.00  0.00    -0.271 OA
HETATM   89  H   UNL     1     -14.997 -12.110  -1.803  1.00  0.00     0.163 HD
BRANCH  87  90
HETATM   90  C   UNL     1     -15.522 -10.546  -3.837  1.00  0.00     0.179 C 
HETATM   91  C   UNL     1     -16.396  -9.668  -4.755  1.00  0.00     0.037 C 
HETATM   92  C   UNL     1     -15.926  -9.974  -6.166  1.00  0.00     0.022 C 
HETATM   93  C   UNL     1     -15.445 -11.411  -6.092  1.00  0.00     0.127 C 
HETATM   94  N   UNL     1     -15.365 -11.745  -4.673  1.00  0.00    -0.337 N 
HETATM   95  C   UNL     1     -14.858 -12.961  -4.216  1.00  0.00     0.253 C 
HETATM   96  O   UNL     1     -14.341 -13.080  -3.107  1.00  0.00    -0.271 OA
BRANCH  95  97
HETATM   97  C   UNL     1     -15.013 -14.165  -5.217  1.00  0.00     0.309 C 
BRANCH  97  98
HETATM   98  C   UNL     1     -16.161 -14.044  -6.243  1.00  0.00     0.055 C 
BRANCH  98  99
HETATM   99  C   UNL     1     -16.403 -15.303  -7.125  1.00  0.00     0.076 C 
BRANCH  99 100
HETATM  100  S   UNL     1     -18.172 -15.757  -7.341  1.00  0.00    -0.173 SA
HETATM  101  C   UNL     1     -18.168 -16.581  -8.949  1.00  0.00     0.089 C 
ENDBRANCH  99 100
ENDBRANCH  98  99
ENDBRANCH  97  98
BRANCH  97 102
HETATM  102  N   UNL     1     -13.723 -14.321  -5.930  1.00  0.00     0.092 N 
HETATM  103  H   UNL     1     -13.764 -13.756  -6.782  1.00  0.00     0.313 HD
HETATM  104  H   UNL     1     -13.660 -15.288  -6.263  1.00  0.00     0.313 HD
ENDBRANCH  97 102
ENDBRANCH  95  97
ENDBRANCH  87  90
ENDBRANCH  78  86
ENDBRANCH  75  78
ENDBRANCH  61  74
ENDBRANCH  58  61
ENDBRANCH   1  57
TORSDOF 35
BEGIN_RES ARG D 557
REMARK  4 active torsions:
REMARK  status: ('A' for Active; 'I' for Inactive)
REMARK    1  A    between atoms: CA   and  CB  
REMARK    2  A    between atoms: CB   and  CG  
REMARK    3  A    between atoms: CG   and  CD  
REMARK    4  A    between atoms: CD   and  NE  
REMARK       I    between atoms: NE   and  CZ  
REMARK       I    between atoms: CZ   and  NH1 
REMARK       I    between atoms: CZ   and  NH2 
ROOT
ATOM      1  CA  ARG D 557     -26.217   2.705 -17.014  1.00 35.49     0.159 C 
ENDROOT
BRANCH   1   2
ATOM      2  CB  ARG D 557     -26.789   1.319 -17.183  1.00 35.49     0.034 C 
BRANCH   2   3
ATOM      3  CG  ARG D 557     -26.963   0.523 -15.962  1.00 35.49     0.027 C 
BRANCH   3   4
ATOM      4  CD  ARG D 557     -26.988  -0.932 -16.236  1.00 35.49     0.116 C 
BRANCH   4   5
ATOM      5  NE  ARG D 557     -26.455  -1.700 -15.142  1.00 35.49    -0.212 N 
ATOM      6  CZ  ARG D 557     -25.242  -1.592 -14.647  1.00 35.49     0.666 C 
ATOM      7  NH1 ARG D 557     -24.351  -0.747 -15.131  1.00 35.49    -0.235 N 
ATOM      8  NH2 ARG D 557     -24.936  -2.354 -13.638  1.00 35.49    -0.235 N 
ATOM      9  HH  ARG D 557     -24.532  -0.234 -15.793  1.00 35.49     0.174 HD
ATOM     10  HH  ARG D 557     -23.576  -0.718 -14.766  1.00 35.49     0.174 HD
ATOM     11  HH  ARG D 557     -25.534  -2.885 -13.341  1.00 35.49     0.174 HD
ATOM     12  HH  ARG D 557     -24.164  -2.310 -13.289  1.00 35.49     0.174 HD
ATOM     13  HE  ARG D 557     -26.937  -2.320 -14.816  1.00 35.49     0.178 HD
ENDBRANCH   4   5
ENDBRANCH   3   4
ENDBRANCH   2   3
ENDBRANCH   1   2
END_RES ARG D 557
BEGIN_RES GLU D 570
REMARK  3 active torsions:
REMARK  status: ('A' for Active; 'I' for Inactive)
REMARK    5  A    between atoms: CA   and  CB  
REMARK    6  A    between atoms: CB   and  CG  
REMARK    7  A    between atoms: CG   and  CD  
ROOT
ATOM     14  CA  GLU D 570     -18.033  -6.348 -13.375  1.00 32.92     0.160 C 
ENDROOT
BRANCH  14  15
ATOM     15  CB  GLU D 570     -19.500  -6.345 -13.794  1.00 32.92     0.043 C 
BRANCH  15  16
ATOM     16  CG  GLU D 570     -20.049  -7.598 -14.375  1.00 32.92     0.100 C 
BRANCH  16  17
ATOM     17  CD  GLU D 570     -20.796  -7.370 -15.668  1.00 32.92     0.185 C 
ATOM     18  OE1 GLU D 570     -21.560  -8.258 -16.090  1.00 32.92    -0.647 OA
ATOM     19  OE2 GLU D 570     -20.601  -6.298 -16.275  1.00 32.92    -0.647 OA
ENDBRANCH  16  17
ENDBRANCH  15  16
ENDBRANCH  14  15
END_RES GLU D 570
ENDMDL
MODEL 9
REMARK VINA RESULT:      -5.8      2.121      4.075
REMARK WARNING: 32 MAX_TORS EXCEEDED!!!
REMARK  35 active torsions:
REMARK  status: ('A' for Active; 'I' for Inactive)
REMARK    1  A    between atoms: C_2  and  C_4 
REMARK    2  A    between atoms: C_4  and  C_5 
REMARK    3  A    between atoms: C_4  and  N_8 
REMARK       I    between atoms: C_5  and  N_7 
REMARK       I    between atoms: N_8  and  C_9 
REMARK    4  A    between atoms: C_9  and  C_11 
REMARK       I    between atoms: N_15  and  C_16 
REMARK    5  A    between atoms: C_16  and  C_18 
REMARK    6  A    between atoms: C_18  and  C_19 
REMARK    7  A    between atoms: C_18  and  N_24 
REMARK    8  A    between atoms: C_19  and  C_20 
REMARK    9  A    between atoms: C_20  and  C_21 
REMARK   10  A    between atoms: C_21  and  C_22 
REMARK   11  A    between atoms: C_22  and  N_23 
REMARK       I    between atoms: N_24  and  C_25 
REMARK   12  A    between atoms: C_25  and  C_27 
REMARK   13  A    between atoms: C_27  and  C_28 
REMARK   14  A    between atoms: C_27  and  N_35 
REMARK   15  A    between atoms: C_28  and  C_29 
REMARK       I    between atoms: N_35  and  C_36 
REMARK   16  A    between atoms: C_36  and  C_38 
REMARK   17  A    between atoms: C_38  and  C_39 
REMARK   18  A    between atoms: C_38  and  N_49 
REMARK   19  A    between atoms: C_39  and  C_40 
REMARK       I    between atoms: N_49  and  C_50 
REMARK   20  A    between atoms: C_50  and  C_52 
REMARK   21  A    between atoms: C_52  and  C_53 
REMARK   22  A    between atoms: C_52  and  N_61 
REMARK   23  A    between atoms: C_53  and  C_54 
REMARK   24  A    between atoms: C_54  and  C_55 
REMARK   25  A    between atoms: C_55  and  N_56 
REMARK       I    between atoms: C_58  and  N_59 
REMARK       I    between atoms: C_58  and  N_60 
REMARK       I    between atoms: N_61  and  C_62 
REMARK   26  A    between atoms: C_62  and  C_64 
REMARK   27  A    between atoms: C_64  and  C_65 
REMARK   28  A    between atoms: C_64  and  N_72 
REMARK   29  A    between atoms: C_65  and  C_66 
REMARK       I    between atoms: N_72  and  C_73 
REMARK   30  A    between atoms: C_73  and  C_75 
REMARK       I    between atoms: N_79  and  C_80 
REMARK   31  A    between atoms: C_80  and  C_82 
REMARK   32  A    between atoms: C_82  and  C_83 
REMARK   33  A    between atoms: C_82  and  N_87 
REMARK   34  A    between atoms: C_83  and  C_84 
REMARK   35  A    between atoms: C_84  and  S_85 
ROOT
HETATM    1  C   UNL     1     -20.631 -12.534  -2.597  1.00  0.00     0.181 C 
ENDROOT
BRANCH   1   2
HETATM    2  C   UNL     1     -19.781 -11.706  -3.647  1.00  0.00     0.241 C 
HETATM    3  N   UNL     1     -20.332 -11.416  -4.882  1.00  0.00    -0.346 N 
HETATM    4  H   UNL     1     -21.233 -11.807  -5.128  1.00  0.00     0.163 HD
HETATM    5  O   UNL     1     -18.633 -11.340  -3.368  1.00  0.00    -0.271 OA
BRANCH   3   6
HETATM    6  C   UNL     1     -19.602 -10.734  -5.986  1.00  0.00     0.180 C 
BRANCH   6   7
HETATM    7  C   UNL     1     -19.434  -9.161  -5.781  1.00  0.00     0.241 C 
HETATM    8  N   UNL     1     -20.615  -8.438  -5.573  1.00  0.00    -0.346 N 
HETATM    9  H   UNL     1     -21.493  -8.926  -5.688  1.00  0.00     0.163 HD
HETATM   10  O   UNL     1     -18.308  -8.667  -5.729  1.00  0.00    -0.271 OA
BRANCH   8  11
HETATM   11  C   UNL     1     -20.713  -7.024  -5.099  1.00  0.00     0.176 C 
BRANCH  11  12
HETATM   12  C   UNL     1     -21.165  -6.096  -6.224  1.00  0.00     0.243 C 
HETATM   13  N   UNL     1     -20.279  -5.278  -6.894  1.00  0.00    -0.337 N 
HETATM   14  C   UNL     1     -20.706  -3.942  -7.425  1.00  0.00     0.179 C 
HETATM   15  C   UNL     1     -18.829  -5.367  -6.889  1.00  0.00     0.127 C 
HETATM   16  C   UNL     1     -19.555  -3.598  -8.355  1.00  0.00     0.037 C 
HETATM   17  C   UNL     1     -18.320  -4.128  -7.637  1.00  0.00     0.022 C 
HETATM   18  O   UNL     1     -22.394  -5.937  -6.333  1.00  0.00    -0.271 OA
BRANCH  14  19
HETATM   19  C   UNL     1     -22.071  -3.863  -8.108  1.00  0.00     0.241 C 
HETATM   20  N   UNL     1     -22.045  -3.952  -9.503  1.00  0.00    -0.346 N 
HETATM   21  H   UNL     1     -21.177  -3.648  -9.933  1.00  0.00     0.163 HD
HETATM   22  O   UNL     1     -23.109  -3.725  -7.452  1.00  0.00    -0.271 OA
BRANCH  20  23
HETATM   23  C   UNL     1     -23.264  -3.696 -10.272  1.00  0.00     0.179 C 
BRANCH  23  24
HETATM   24  C   UNL     1     -23.110  -2.972 -11.632  1.00  0.00     0.009 C 
HETATM   25  C   UNL     1     -21.956  -3.551 -12.459  1.00  0.00     0.012 C 
HETATM   26  C   UNL     1     -24.331  -2.862 -12.547  1.00  0.00     0.012 C 
ENDBRANCH  23  24
BRANCH  23  27
HETATM   27  C   UNL     1     -24.057  -5.034 -10.360  1.00  0.00     0.238 C 
HETATM   28  O   UNL     1     -23.904  -5.902 -11.212  1.00  0.00    -0.271 OA
HETATM   29  N   UNL     1     -24.995  -5.204  -9.383  1.00  0.00    -0.368 N 
HETATM   30  H   UNL     1     -25.144  -4.487  -8.672  1.00  0.00     0.159 HD
HETATM   31  H   UNL     1     -25.563  -6.037  -9.370  1.00  0.00     0.159 HD
ENDBRANCH  23  27
ENDBRANCH  20  23
ENDBRANCH  14  19
ENDBRANCH  11  12
BRANCH  11  32
HETATM   32  C   UNL     1     -21.829  -6.892  -3.990  1.00  0.00     0.035 C 
BRANCH  32  33
HETATM   33  C   UNL     1     -22.300  -8.245  -3.369  1.00  0.00     0.004 C 
BRANCH  33  34
HETATM   34  C   UNL     1     -21.437  -8.815  -2.233  1.00  0.00     0.030 C 
BRANCH  34  35
HETATM   35  C   UNL     1     -20.185  -7.960  -1.929  1.00  0.00     0.267 C 
BRANCH  35  36
HETATM   36  N   UNL     1     -18.923  -8.689  -2.105  1.00  0.00     0.078 N 
HETATM   37  H   UNL     1     -18.652  -8.659  -3.087  1.00  0.00     0.312 HD
HETATM   38  H   UNL     1     -19.093  -9.680  -1.909  1.00  0.00     0.312 HD
ENDBRANCH  35  36
ENDBRANCH  34  35
ENDBRANCH  33  34
ENDBRANCH  32  33
ENDBRANCH  11  32
ENDBRANCH   8  11
ENDBRANCH   6   7
BRANCH   6  39
HETATM   39  C   UNL     1     -18.295 -11.481  -6.342  1.00  0.00     0.073 C 
BRANCH  39  40
HETATM   40  C   UNL     1     -18.321 -12.729  -7.212  1.00  0.00    -0.056 A 
HETATM   41  C   UNL     1     -18.045 -14.019  -6.745  1.00  0.00     0.007 A 
HETATM   42  C   UNL     1     -18.191 -15.132  -7.582  1.00  0.00     0.001 A 
HETATM   43  C   UNL     1     -18.607 -14.974  -8.900  1.00  0.00     0.000 A 
HETATM   44  C   UNL     1     -18.836 -13.696  -9.399  1.00  0.00     0.001 A 
HETATM   45  C   UNL     1     -18.679 -12.584  -8.567  1.00  0.00     0.007 A 
ENDBRANCH  39  40
ENDBRANCH   6  39
ENDBRANCH   3   6
ENDBRANCH   1   2
BRANCH   1  46
HETATM   46  C   UNL     1     -22.149 -12.513  -2.827  1.00  0.00     0.075 C 
BRANCH  46  47
HETATM   47  C   UNL     1     -22.952 -12.455  -1.561  1.00  0.00    -0.028 C 
HETATM   48  C   UNL     1     -23.368 -11.314  -0.890  1.00  0.00     0.096 C 
HETATM   49  N   UNL     1     -24.105 -11.741   0.176  1.00  0.00    -0.365 N 
HETATM   50  C   UNL     1     -23.599 -12.972   0.510  1.00  0.00     0.042 C 
HETATM   51  H   UNL     1     -25.095 -11.548   0.221  1.00  0.00     0.165 HD
HETATM   52  C   UNL     1     -23.379 -13.582   1.737  1.00  0.00     0.030 C 
HETATM   53  C   UNL     1     -23.255 -13.557  -0.703  1.00  0.00    -0.002 C 
HETATM   54  C   UNL     1     -22.947 -14.907   1.689  1.00  0.00     0.002 C 
HETATM   55  C   UNL     1     -22.891 -15.605   0.479  1.00  0.00     0.001 C 
HETATM   56  C   UNL     1     -23.056 -14.946  -0.745  1.00  0.00     0.014 C 
ENDBRANCH  46  47
ENDBRANCH   1  46
BRANCH   1  57
HETATM   57  N   UNL     1     -20.063 -13.898  -2.600  1.00  0.00    -0.346 N 
HETATM   58  C   UNL     1     -19.571 -14.562  -1.502  1.00  0.00     0.241 C 
HETATM   59  O   UNL     1     -19.505 -14.078  -0.369  1.00  0.00    -0.271 OA
HETATM   60  H   UNL     1     -19.736 -14.201  -3.512  1.00  0.00     0.163 HD
BRANCH  58  61
HETATM   61  C   UNL     1     -19.069 -16.008  -1.732  1.00  0.00     0.176 C 
BRANCH  61  62
HETATM   62  C   UNL     1     -19.964 -16.907  -2.610  1.00  0.00     0.036 C 
BRANCH  62  63
HETATM   63  C   UNL     1     -19.544 -16.978  -4.076  1.00  0.00     0.022 C 
BRANCH  63  64
HETATM   64  C   UNL     1     -20.687 -16.609  -5.011  1.00  0.00     0.121 C 
BRANCH  64  65
HETATM   65  N   UNL     1     -21.866 -16.339  -4.206  1.00  0.00    -0.372 N 
HETATM   66  C   UNL     1     -22.877 -15.847  -4.808  1.00  0.00     0.121 C 
HETATM   67  N   UNL     1     -23.035 -15.478  -6.095  1.00  0.00    -0.279 NA
HETATM   68  N   UNL     1     -24.016 -15.600  -4.112  1.00  0.00    -0.279 NA
HETATM   69  H   UNL     1     -22.300 -15.798  -6.709  1.00  0.00     0.126 HD
HETATM   70  H   UNL     1     -23.948 -15.722  -6.461  1.00  0.00     0.126 HD
HETATM   71  H   UNL     1     -23.820 -15.634  -3.115  1.00  0.00     0.126 HD
HETATM   72  H   UNL     1     -24.462 -14.729  -4.368  1.00  0.00     0.126 HD
ATOM     73  HN  UNL     1     -21.884 -16.534  -3.205  1.00  0.00     0.161 HD
ENDBRANCH  64  65
ENDBRANCH  63  64
ENDBRANCH  62  63
ENDBRANCH  61  62
BRANCH  61  74
HETATM   74  N   UNL     1     -17.684 -15.851  -2.189  1.00  0.00    -0.346 N 
HETATM   75  C   UNL     1     -16.729 -16.596  -1.534  1.00  0.00     0.241 C 
HETATM   76  O   UNL     1     -17.048 -17.181  -0.497  1.00  0.00    -0.271 OA
HETATM   77  H   UNL     1     -17.545 -15.602  -3.160  1.00  0.00     0.163 HD
BRANCH  75  78
HETATM   78  C   UNL     1     -15.308 -16.754  -2.121  1.00  0.00     0.180 C 
BRANCH  78  79
HETATM   79  C   UNL     1     -15.072 -16.225  -3.557  1.00  0.00     0.073 C 
BRANCH  79  80
HETATM   80  C   UNL     1     -14.713 -14.775  -3.821  1.00  0.00    -0.056 A 
HETATM   81  C   UNL     1     -15.661 -13.761  -3.987  1.00  0.00     0.007 A 
HETATM   82  C   UNL     1     -15.270 -12.433  -4.167  1.00  0.00     0.001 A 
HETATM   83  C   UNL     1     -13.921 -12.093  -4.185  1.00  0.00     0.000 A 
HETATM   84  C   UNL     1     -12.957 -13.089  -4.072  1.00  0.00     0.001 A 
HETATM   85  C   UNL     1     -13.350 -14.422  -3.905  1.00  0.00     0.007 A 
ENDBRANCH  79  80
ENDBRANCH  78  79
BRANCH  78  86
HETATM   86  N   UNL     1     -14.336 -16.250  -1.120  1.00  0.00    -0.346 N 
HETATM   87  C   UNL     1     -14.521 -14.978  -0.562  1.00  0.00     0.241 C 
HETATM   88  O   UNL     1     -15.580 -14.359  -0.670  1.00  0.00    -0.271 OA
HETATM   89  H   UNL     1     -13.391 -16.609  -1.167  1.00  0.00     0.163 HD
BRANCH  87  90
HETATM   90  C   UNL     1     -13.349 -14.447   0.309  1.00  0.00     0.179 C 
HETATM   91  C   UNL     1     -12.065 -14.841  -0.449  1.00  0.00     0.037 C 
HETATM   92  C   UNL     1     -10.965 -14.834   0.597  1.00  0.00     0.022 C 
HETATM   93  C   UNL     1     -11.678 -15.197   1.886  1.00  0.00     0.127 C 
HETATM   94  N   UNL     1     -13.107 -15.091   1.609  1.00  0.00    -0.337 N 
HETATM   95  C   UNL     1     -14.077 -15.254   2.597  1.00  0.00     0.253 C 
HETATM   96  O   UNL     1     -15.181 -14.718   2.527  1.00  0.00    -0.271 OA
BRANCH  95  97
HETATM   97  C   UNL     1     -13.657 -16.185   3.794  1.00  0.00     0.309 C 
BRANCH  97  98
HETATM   98  C   UNL     1     -13.370 -15.471   5.134  1.00  0.00     0.055 C 
BRANCH  98  99
HETATM   99  C   UNL     1     -12.476 -16.260   6.132  1.00  0.00     0.076 C 
BRANCH  99 100
HETATM  100  S   UNL     1     -10.982 -15.352   6.703  1.00  0.00    -0.173 SA
HETATM  101  C   UNL     1      -9.651 -16.204   5.826  1.00  0.00     0.089 C 
ENDBRANCH  99 100
ENDBRANCH  98  99
ENDBRANCH  97  98
BRANCH  97 102
HETATM  102  N   UNL     1     -14.736 -17.183   3.984  1.00  0.00     0.092 N 
HETATM  103  H   UNL     1     -14.994 -17.545   3.063  1.00  0.00     0.313 HD
HETATM  104  H   UNL     1     -15.571 -16.688   4.311  1.00  0.00     0.313 HD
ENDBRANCH  97 102
ENDBRANCH  95  97
ENDBRANCH  87  90
ENDBRANCH  78  86
ENDBRANCH  75  78
ENDBRANCH  61  74
ENDBRANCH  58  61
ENDBRANCH   1  57
TORSDOF 35
BEGIN_RES ARG D 557
REMARK  4 active torsions:
REMARK  status: ('A' for Active; 'I' for Inactive)
REMARK    1  A    between atoms: CA   and  CB  
REMARK    2  A    between atoms: CB   and  CG  
REMARK    3  A    between atoms: CG   and  CD  
REMARK    4  A    between atoms: CD   and  NE  
REMARK       I    between atoms: NE   and  CZ  
REMARK       I    between atoms: CZ   and  NH1 
REMARK       I    between atoms: CZ   and  NH2 
ROOT
ATOM      1  CA  ARG D 557     -26.217   2.705 -17.014  1.00 35.49     0.159 C 
ENDROOT
BRANCH   1   2
ATOM      2  CB  ARG D 557     -26.789   1.319 -17.183  1.00 35.49     0.034 C 
BRANCH   2   3
ATOM      3  CG  ARG D 557     -25.909   0.195 -16.842  1.00 35.49     0.027 C 
BRANCH   3   4
ATOM      4  CD  ARG D 557     -26.520  -0.719 -15.850  1.00 35.49     0.116 C 
BRANCH   4   5
ATOM      5  NE  ARG D 557     -27.401  -1.676 -16.466  1.00 35.49    -0.212 N 
ATOM      6  CZ  ARG D 557     -27.438  -2.964 -16.208  1.00 35.49     0.666 C 
ATOM      7  NH1 ARG D 557     -26.629  -3.536 -15.334  1.00 35.49    -0.235 N 
ATOM      8  NH2 ARG D 557     -28.317  -3.680 -16.846  1.00 35.49    -0.235 N 
ATOM      9  HH  ARG D 557     -26.044  -3.084 -14.901  1.00 35.49     0.174 HD
ATOM     10  HH  ARG D 557     -26.700  -4.380 -15.205  1.00 35.49     0.174 HD
ATOM     11  HH  ARG D 557     -28.832  -3.283 -17.399  1.00 35.49     0.174 HD
ATOM     12  HH  ARG D 557     -28.373  -4.514 -16.703  1.00 35.49     0.174 HD
ATOM     13  HE  ARG D 557     -27.907  -1.407 -17.094  1.00 35.49     0.178 HD
ENDBRANCH   4   5
ENDBRANCH   3   4
ENDBRANCH   2   3
ENDBRANCH   1   2
END_RES ARG D 557
BEGIN_RES GLU D 570
REMARK  3 active torsions:
REMARK  status: ('A' for Active; 'I' for Inactive)
REMARK    5  A    between atoms: CA   and  CB  
REMARK    6  A    between atoms: CB   and  CG  
REMARK    7  A    between atoms: CG   and  CD  
ROOT
ATOM     14  CA  GLU D 570     -18.033  -6.348 -13.375  1.00 32.92     0.160 C 
ENDROOT
BRANCH  14  15
ATOM     15  CB  GLU D 570     -19.500  -6.345 -13.794  1.00 32.92     0.043 C 
BRANCH  15  16
ATOM     16  CG  GLU D 570     -19.800  -6.143 -15.235  1.00 32.92     0.100 C 
BRANCH  16  17
ATOM     17  CD  GLU D 570     -20.867  -7.080 -15.752  1.00 32.92     0.185 C 
ATOM     18  OE1 GLU D 570     -20.827  -8.282 -15.425  1.00 32.92    -0.647 OA
ATOM     19  OE2 GLU D 570     -21.742  -6.610 -16.506  1.00 32.92    -0.647 OA
ENDBRANCH  16  17
ENDBRANCH  15  16
ENDBRANCH  14  15
END_RES GLU D 570
ENDMDL
