MODEL 1
REMARK VINA RESULT:      -5.7      0.000      0.000
REMARK  5 active torsions:
REMARK  status: ('A' for Active; 'I' for Inactive)
REMARK    1  A    between atoms: CG1_2  and  CB_3 
REMARK    2  A    between atoms: CB_3  and  CA_5 
REMARK    3  A    between atoms: CA_5  and  C_6 
REMARK    4  A    between atoms: CA_5  and  N_9 
REMARK    5  A    between atoms: C_6  and  OXT_8 
ROOT
ATOM      1  CA  ILE A   1     -23.226  -4.555 -10.421  1.00  0.00     0.318 C 
ENDROOT
BRANCH   1   2
ATOM      2  CB  ILE A   1     -21.858  -3.930 -10.027  1.00  0.00     0.024 C 
ATOM      3  CG2 ILE A   1     -20.860  -4.039 -11.194  1.00  0.00     0.012 C 
BRANCH   2   4
ATOM      4  CG1 ILE A   1     -21.275  -4.590  -8.755  1.00  0.00     0.002 C 
ATOM      5  CD1 ILE A   1     -21.396  -3.740  -7.494  1.00  0.00     0.005 C 
ENDBRANCH   2   4
ENDBRANCH   1   2
BRANCH   1   6
ATOM      6  C   ILE A   1     -24.413  -3.594 -10.172  1.00  0.00     0.174 C 
ATOM      7  O   ILE A   1     -25.131  -3.154 -11.062  1.00  0.00    -0.648 OA
BRANCH   6   8
ATOM      8  OXT ILE A   1     -24.618  -3.300  -8.868  1.00  0.00    -0.775 OA
ATOM      9  HXT ILE A   1     -25.420  -3.698  -8.484  1.00  0.00     0.167 HD
ENDBRANCH   6   8
ENDBRANCH   1   6
BRANCH   1  10
ATOM     10  N   ILE A   1     -23.233  -4.924 -11.857  1.00  0.00     0.093 N 
ATOM     11  H1  ILE A   1     -23.488  -5.915 -11.921  1.00  0.00     0.314 HD
ATOM     12  H2  ILE A   1     -22.272  -4.901 -12.210  1.00  0.00     0.314 HD
ENDBRANCH   1  10
TORSDOF 5
BEGIN_RES ARG D 557
REMARK  4 active torsions:
REMARK  status: ('A' for Active; 'I' for Inactive)
REMARK    1  A    between atoms: CA   and  CB  
REMARK    2  A    between atoms: CB   and  CG  
REMARK    3  A    between atoms: CG   and  CD  
REMARK    4  A    between atoms: CD   and  NE  
REMARK       I    between atoms: NE   and  CZ  
REMARK       I    between atoms: CZ   and  NH1 
REMARK       I    between atoms: CZ   and  NH2 
ROOT
ATOM      1  CA  ARG D 557     -26.217   2.705 -17.014  1.00 35.49     0.159 C 
ENDROOT
BRANCH   1   2
ATOM      2  CB  ARG D 557     -26.789   1.319 -17.183  1.00 35.49     0.034 C 
BRANCH   2   3
ATOM      3  CG  ARG D 557     -25.856   0.196 -17.029  1.00 35.49     0.027 C 
BRANCH   3   4
ATOM      4  CD  ARG D 557     -26.203  -0.672 -15.880  1.00 35.49     0.116 C 
BRANCH   4   5
ATOM      5  NE  ARG D 557     -25.084  -0.876 -14.998  1.00 35.49    -0.212 N 
ATOM      6  CZ  ARG D 557     -24.883  -1.935 -14.246  1.00 35.49     0.666 C 
ATOM      7  NH1 ARG D 557     -25.725  -2.951 -14.210  1.00 35.49    -0.235 N 
ATOM      8  NH2 ARG D 557     -23.801  -1.960 -13.522  1.00 35.49    -0.235 N 
ATOM      9  HH  ARG D 557     -26.442  -2.956 -14.680  1.00 35.49     0.174 HD
ATOM     10  HH  ARG D 557     -25.540  -3.615 -13.703  1.00 35.49     0.174 HD
ATOM     11  HH  ARG D 557     -23.272  -1.293 -13.571  1.00 35.49     0.174 HD
ATOM     12  HH  ARG D 557     -23.635  -2.628 -13.027  1.00 35.49     0.174 HD
ATOM     13  HE  ARG D 557     -24.529  -0.239 -14.903  1.00 35.49     0.178 HD
ENDBRANCH   4   5
ENDBRANCH   3   4
ENDBRANCH   2   3
ENDBRANCH   1   2
END_RES ARG D 557
BEGIN_RES GLU D 570
REMARK  3 active torsions:
REMARK  status: ('A' for Active; 'I' for Inactive)
REMARK    5  A    between atoms: CA   and  CB  
REMARK    6  A    between atoms: CB   and  CG  
REMARK    7  A    between atoms: CG   and  CD  
ROOT
ATOM     14  CA  GLU D 570     -18.033  -6.348 -13.375  1.00 32.92     0.160 C 
ENDROOT
BRANCH  14  15
ATOM     15  CB  GLU D 570     -19.500  -6.345 -13.794  1.00 32.92     0.043 C 
BRANCH  15  16
ATOM     16  CG  GLU D 570     -19.810  -5.978 -15.200  1.00 32.92     0.100 C 
BRANCH  16  17
ATOM     17  CD  GLU D 570     -21.237  -5.521 -15.389  1.00 32.92     0.185 C 
ATOM     18  OE1 GLU D 570     -21.545  -4.912 -16.432  1.00 32.92    -0.647 OA
ATOM     19  OE2 GLU D 570     -22.053  -5.760 -14.477  1.00 32.92    -0.647 OA
ENDBRANCH  16  17
ENDBRANCH  15  16
ENDBRANCH  14  15
END_RES GLU D 570
ENDMDL
MODEL 2
REMARK VINA RESULT:      -5.5      2.714      3.583
REMARK  5 active torsions:
REMARK  status: ('A' for Active; 'I' for Inactive)
REMARK    1  A    between atoms: CG1_2  and  CB_3 
REMARK    2  A    between atoms: CB_3  and  CA_5 
REMARK    3  A    between atoms: CA_5  and  C_6 
REMARK    4  A    between atoms: CA_5  and  N_9 
REMARK    5  A    between atoms: C_6  and  OXT_8 
ROOT
ATOM      1  CA  ILE A   1     -24.510  -3.167 -13.564  1.00  0.00     0.318 C 
ENDROOT
BRANCH   1   2
ATOM      2  CB  ILE A   1     -23.593  -2.914 -12.335  1.00  0.00     0.024 C 
ATOM      3  CG2 ILE A   1     -22.287  -3.720 -12.462  1.00  0.00     0.012 C 
BRANCH   2   4
ATOM      4  CG1 ILE A   1     -24.309  -3.255 -11.008  1.00  0.00     0.002 C 
ATOM      5  CD1 ILE A   1     -23.956  -4.624 -10.436  1.00  0.00     0.005 C 
ENDBRANCH   2   4
ENDBRANCH   1   2
BRANCH   1   6
ATOM      6  C   ILE A   1     -24.361  -2.077 -14.653  1.00  0.00     0.174 C 
ATOM      7  O   ILE A   1     -25.226  -1.249 -14.910  1.00  0.00    -0.648 OA
BRANCH   6   8
ATOM      8  OXT ILE A   1     -23.166  -2.094 -15.286  1.00  0.00    -0.775 OA
ATOM      9  HXT ILE A   1     -22.719  -1.229 -15.328  1.00  0.00     0.167 HD
ENDBRANCH   6   8
ENDBRANCH   1   6
BRANCH   1  10
ATOM     10  N   ILE A   1     -24.194  -4.476 -14.186  1.00  0.00     0.093 N 
ATOM     11  H1  ILE A   1     -23.599  -4.295 -15.001  1.00  0.00     0.314 HD
ATOM     12  H2  ILE A   1     -25.049  -4.863 -14.596  1.00  0.00     0.314 HD
ENDBRANCH   1  10
TORSDOF 5
BEGIN_RES ARG D 557
REMARK  4 active torsions:
REMARK  status: ('A' for Active; 'I' for Inactive)
REMARK    1  A    between atoms: CA   and  CB  
REMARK    2  A    between atoms: CB   and  CG  
REMARK    3  A    between atoms: CG   and  CD  
REMARK    4  A    between atoms: CD   and  NE  
REMARK       I    between atoms: NE   and  CZ  
REMARK       I    between atoms: CZ   and  NH1 
REMARK       I    between atoms: CZ   and  NH2 
ROOT
ATOM      1  CA  ARG D 557     -26.217   2.705 -17.014  1.00 35.49     0.159 C 
ENDROOT
BRANCH   1   2
ATOM      2  CB  ARG D 557     -26.789   1.319 -17.183  1.00 35.49     0.034 C 
BRANCH   2   3
ATOM      3  CG  ARG D 557     -28.189   1.129 -16.786  1.00 35.49     0.027 C 
BRANCH   3   4
ATOM      4  CD  ARG D 557     -28.701  -0.213 -17.144  1.00 35.49     0.116 C 
BRANCH   4   5
ATOM      5  NE  ARG D 557     -27.934  -1.267 -16.532  1.00 35.49    -0.212 N 
ATOM      6  CZ  ARG D 557     -28.128  -2.556 -16.701  1.00 35.49     0.666 C 
ATOM      7  NH1 ARG D 557     -29.092  -3.033 -17.467  1.00 35.49    -0.235 N 
ATOM      8  NH2 ARG D 557     -27.323  -3.370 -16.083  1.00 35.49    -0.235 N 
ATOM      9  HH  ARG D 557     -29.632  -2.516 -17.884  1.00 35.49     0.174 HD
ATOM     10  HH  ARG D 557     -29.169  -3.883 -17.541  1.00 35.49     0.174 HD
ATOM     11  HH  ARG D 557     -26.705  -3.033 -15.601  1.00 35.49     0.174 HD
ATOM     12  HH  ARG D 557     -27.414  -4.208 -16.171  1.00 35.49     0.174 HD
ATOM     13  HE  ARG D 557     -27.338  -1.050 -15.966  1.00 35.49     0.178 HD
ENDBRANCH   4   5
ENDBRANCH   3   4
ENDBRANCH   2   3
ENDBRANCH   1   2
END_RES ARG D 557
BEGIN_RES GLU D 570
REMARK  3 active torsions:
REMARK  status: ('A' for Active; 'I' for Inactive)
REMARK    5  A    between atoms: CA   and  CB  
REMARK    6  A    between atoms: CB   and  CG  
REMARK    7  A    between atoms: CG   and  CD  
ROOT
ATOM     14  CA  GLU D 570     -18.033  -6.348 -13.375  1.00 32.92     0.160 C 
ENDROOT
BRANCH  14  15
ATOM     15  CB  GLU D 570     -19.500  -6.345 -13.794  1.00 32.92     0.043 C 
BRANCH  15  16
ATOM     16  CG  GLU D 570     -19.808  -5.999 -15.206  1.00 32.92     0.100 C 
BRANCH  16  17
ATOM     17  CD  GLU D 570     -21.273  -5.712 -15.436  1.00 32.92     0.185 C 
ATOM     18  OE1 GLU D 570     -22.108  -6.610 -15.213  1.00 32.92    -0.647 OA
ATOM     19  OE2 GLU D 570     -21.588  -4.582 -15.860  1.00 32.92    -0.647 OA
ENDBRANCH  16  17
ENDBRANCH  15  16
ENDBRANCH  14  15
END_RES GLU D 570
ENDMDL
MODEL 3
REMARK VINA RESULT:      -5.5      3.314      6.076
REMARK  5 active torsions:
REMARK  status: ('A' for Active; 'I' for Inactive)
REMARK    1  A    between atoms: CG1_2  and  CB_3 
REMARK    2  A    between atoms: CB_3  and  CA_5 
REMARK    3  A    between atoms: CA_5  and  C_6 
REMARK    4  A    between atoms: CA_5  and  N_9 
REMARK    5  A    between atoms: C_6  and  OXT_8 
ROOT
ATOM      1  CA  ILE A   1     -26.790  -5.648 -16.749  1.00  0.00     0.318 C 
ENDROOT
BRANCH   1   2
ATOM      2  CB  ILE A   1     -27.920  -4.849 -16.044  1.00  0.00     0.024 C 
ATOM      3  CG2 ILE A   1     -29.103  -5.775 -15.703  1.00  0.00     0.012 C 
BRANCH   2   4
ATOM      4  CG1 ILE A   1     -28.400  -3.657 -16.905  1.00  0.00     0.002 C 
ATOM      5  CD1 ILE A   1     -29.714  -3.901 -17.642  1.00  0.00     0.005 C 
ENDBRANCH   2   4
ENDBRANCH   1   2
BRANCH   1   6
ATOM      6  C   ILE A   1     -25.811  -6.307 -15.747  1.00  0.00     0.174 C 
ATOM      7  O   ILE A   1     -25.923  -7.457 -15.343  1.00  0.00    -0.648 OA
BRANCH   6   8
ATOM      8  OXT ILE A   1     -24.789  -5.506 -15.371  1.00  0.00    -0.775 OA
ATOM      9  HXT ILE A   1     -24.030  -5.975 -14.978  1.00  0.00     0.167 HD
ENDBRANCH   6   8
ENDBRANCH   1   6
BRANCH   1  10
ATOM     10  N   ILE A   1     -27.364  -6.722 -17.595  1.00  0.00     0.093 N 
ATOM     11  H1  ILE A   1     -26.637  -7.433 -17.727  1.00  0.00     0.314 HD
ATOM     12  H2  ILE A   1     -27.513  -6.356 -18.540  1.00  0.00     0.314 HD
ENDBRANCH   1  10
TORSDOF 5
BEGIN_RES ARG D 557
REMARK  4 active torsions:
REMARK  status: ('A' for Active; 'I' for Inactive)
REMARK    1  A    between atoms: CA   and  CB  
REMARK    2  A    between atoms: CB   and  CG  
REMARK    3  A    between atoms: CG   and  CD  
REMARK    4  A    between atoms: CD   and  NE  
REMARK       I    between atoms: NE   and  CZ  
REMARK       I    between atoms: CZ   and  NH1 
REMARK       I    between atoms: CZ   and  NH2 
ROOT
ATOM      1  CA  ARG D 557     -26.217   2.705 -17.014  1.00 35.49     0.159 C 
ENDROOT
BRANCH   1   2
ATOM      2  CB  ARG D 557     -26.789   1.319 -17.183  1.00 35.49     0.034 C 
BRANCH   2   3
ATOM      3  CG  ARG D 557     -25.861   0.195 -17.006  1.00 35.49     0.027 C 
BRANCH   3   4
ATOM      4  CD  ARG D 557     -26.201  -0.638 -15.831  1.00 35.49     0.116 C 
BRANCH   4   5
ATOM      5  NE  ARG D 557     -25.059  -0.883 -14.991  1.00 35.49    -0.212 N 
ATOM      6  CZ  ARG D 557     -24.865  -1.951 -14.249  1.00 35.49     0.666 C 
ATOM      7  NH1 ARG D 557     -25.739  -2.938 -14.186  1.00 35.49    -0.235 N 
ATOM      8  NH2 ARG D 557     -23.759  -2.015 -13.566  1.00 35.49    -0.235 N 
ATOM      9  HH  ARG D 557     -26.473  -2.918 -14.629  1.00 35.49     0.174 HD
ATOM     10  HH  ARG D 557     -25.558  -3.611 -13.687  1.00 35.49     0.174 HD
ATOM     11  HH  ARG D 557     -23.210  -1.366 -13.632  1.00 35.49     0.174 HD
ATOM     12  HH  ARG D 557     -23.597  -2.690 -13.079  1.00 35.49     0.174 HD
ATOM     13  HE  ARG D 557     -24.479  -0.265 -14.915  1.00 35.49     0.178 HD
ENDBRANCH   4   5
ENDBRANCH   3   4
ENDBRANCH   2   3
ENDBRANCH   1   2
END_RES ARG D 557
BEGIN_RES GLU D 570
REMARK  3 active torsions:
REMARK  status: ('A' for Active; 'I' for Inactive)
REMARK    5  A    between atoms: CA   and  CB  
REMARK    6  A    between atoms: CB   and  CG  
REMARK    7  A    between atoms: CG   and  CD  
ROOT
ATOM     14  CA  GLU D 570     -18.033  -6.348 -13.375  1.00 32.92     0.160 C 
ENDROOT
BRANCH  14  15
ATOM     15  CB  GLU D 570     -19.500  -6.345 -13.794  1.00 32.92     0.043 C 
BRANCH  15  16
ATOM     16  CG  GLU D 570     -20.440  -5.520 -12.991  1.00 32.92     0.100 C 
BRANCH  16  17
ATOM     17  CD  GLU D 570     -21.711  -5.183 -13.735  1.00 32.92     0.185 C 
ATOM     18  OE1 GLU D 570     -21.694  -5.156 -14.980  1.00 32.92    -0.647 OA
ATOM     19  OE2 GLU D 570     -22.730  -4.927 -13.064  1.00 32.92    -0.647 OA
ENDBRANCH  16  17
ENDBRANCH  15  16
ENDBRANCH  14  15
END_RES GLU D 570
ENDMDL
MODEL 4
REMARK VINA RESULT:      -5.3      1.599      1.984
REMARK  5 active torsions:
REMARK  status: ('A' for Active; 'I' for Inactive)
REMARK    1  A    between atoms: CG1_2  and  CB_3 
REMARK    2  A    between atoms: CB_3  and  CA_5 
REMARK    3  A    between atoms: CA_5  and  C_6 
REMARK    4  A    between atoms: CA_5  and  N_9 
REMARK    5  A    between atoms: C_6  and  OXT_8 
ROOT
ATOM      1  CA  ILE A   1     -22.999  -3.840  -8.887  1.00  0.00     0.318 C 
ENDROOT
BRANCH   1   2
ATOM      2  CB  ILE A   1     -21.781  -4.806  -8.901  1.00  0.00     0.024 C 
ATOM      3  CG2 ILE A   1     -21.611  -5.478  -7.526  1.00  0.00     0.012 C 
BRANCH   2   4
ATOM      4  CG1 ILE A   1     -20.479  -4.077  -9.310  1.00  0.00     0.002 C 
ATOM      5  CD1 ILE A   1     -19.411  -4.039  -8.221  1.00  0.00     0.005 C 
ENDBRANCH   2   4
ENDBRANCH   1   2
BRANCH   1   6
ATOM      6  C   ILE A   1     -23.875  -3.969 -10.157  1.00  0.00     0.174 C 
ATOM      7  O   ILE A   1     -24.485  -3.034 -10.661  1.00  0.00    -0.648 OA
BRANCH   6   8
ATOM      8  OXT ILE A   1     -23.886  -5.211 -10.693  1.00  0.00    -0.775 OA
ATOM      9  HXT ILE A   1     -23.093  -5.743 -10.497  1.00  0.00     0.167 HD
ENDBRANCH   6   8
ENDBRANCH   1   6
BRANCH   1  10
ATOM     10  N   ILE A   1     -23.862  -4.111  -7.712  1.00  0.00     0.093 N 
ATOM     11  H1  ILE A   1     -24.830  -4.164  -8.045  1.00  0.00     0.314 HD
ATOM     12  H2  ILE A   1     -23.864  -3.285  -7.106  1.00  0.00     0.314 HD
ENDBRANCH   1  10
TORSDOF 5
BEGIN_RES ARG D 557
REMARK  4 active torsions:
REMARK  status: ('A' for Active; 'I' for Inactive)
REMARK    1  A    between atoms: CA   and  CB  
REMARK    2  A    between atoms: CB   and  CG  
REMARK    3  A    between atoms: CG   and  CD  
REMARK    4  A    between atoms: CD   and  NE  
REMARK       I    between atoms: NE   and  CZ  
REMARK       I    between atoms: CZ   and  NH1 
REMARK       I    between atoms: CZ   and  NH2 
ROOT
ATOM      1  CA  ARG D 557     -26.217   2.705 -17.014  1.00 35.49     0.159 C 
ENDROOT
BRANCH   1   2
ATOM      2  CB  ARG D 557     -26.789   1.319 -17.183  1.00 35.49     0.034 C 
BRANCH   2   3
ATOM      3  CG  ARG D 557     -25.859   0.196 -17.014  1.00 35.49     0.027 C 
BRANCH   3   4
ATOM      4  CD  ARG D 557     -26.248  -0.695 -15.897  1.00 35.49     0.116 C 
BRANCH   4   5
ATOM      5  NE  ARG D 557     -25.194  -0.841 -14.928  1.00 35.49    -0.212 N 
ATOM      6  CZ  ARG D 557     -24.824  -1.966 -14.358  1.00 35.49     0.666 C 
ATOM      7  NH1 ARG D 557     -25.414  -3.118 -14.615  1.00 35.49    -0.235 N 
ATOM      8  NH2 ARG D 557     -23.833  -1.915 -13.516  1.00 35.49    -0.235 N 
ATOM      9  HH  ARG D 557     -26.067  -3.175 -15.167  1.00 35.49     0.174 HD
ATOM     10  HH  ARG D 557     -25.129  -3.820 -14.215  1.00 35.49     0.174 HD
ATOM     11  HH  ARG D 557     -23.466  -1.158 -13.375  1.00 35.49     0.174 HD
ATOM     12  HH  ARG D 557     -23.564  -2.621 -13.131  1.00 35.49     0.174 HD
ATOM     13  HE  ARG D 557     -24.807  -0.136 -14.649  1.00 35.49     0.178 HD
ENDBRANCH   4   5
ENDBRANCH   3   4
ENDBRANCH   2   3
ENDBRANCH   1   2
END_RES ARG D 557
BEGIN_RES GLU D 570
REMARK  3 active torsions:
REMARK  status: ('A' for Active; 'I' for Inactive)
REMARK    5  A    between atoms: CA   and  CB  
REMARK    6  A    between atoms: CB   and  CG  
REMARK    7  A    between atoms: CG   and  CD  
ROOT
ATOM     14  CA  GLU D 570     -18.033  -6.348 -13.375  1.00 32.92     0.160 C 
ENDROOT
BRANCH  14  15
ATOM     15  CB  GLU D 570     -19.500  -6.345 -13.794  1.00 32.92     0.043 C 
BRANCH  15  16
ATOM     16  CG  GLU D 570     -20.431  -5.485 -13.020  1.00 32.92     0.100 C 
BRANCH  16  17
ATOM     17  CD  GLU D 570     -21.617  -5.019 -13.832  1.00 32.92     0.185 C 
ATOM     18  OE1 GLU D 570     -22.649  -4.650 -13.240  1.00 32.92    -0.647 OA
ATOM     19  OE2 GLU D 570     -21.519  -5.040 -15.075  1.00 32.92    -0.647 OA
ENDBRANCH  16  17
ENDBRANCH  15  16
ENDBRANCH  14  15
END_RES GLU D 570
ENDMDL
MODEL 5
REMARK VINA RESULT:      -4.8      6.729      8.450
REMARK  5 active torsions:
REMARK  status: ('A' for Active; 'I' for Inactive)
REMARK    1  A    between atoms: CG1_2  and  CB_3 
REMARK    2  A    between atoms: CB_3  and  CA_5 
REMARK    3  A    between atoms: CA_5  and  C_6 
REMARK    4  A    between atoms: CA_5  and  N_9 
REMARK    5  A    between atoms: C_6  and  OXT_8 
ROOT
ATOM      1  CA  ILE A   1     -25.879   6.924 -11.081  1.00  0.00     0.318 C 
ENDROOT
BRANCH   1   2
ATOM      2  CB  ILE A   1     -25.197   8.306 -10.881  1.00  0.00     0.024 C 
ATOM      3  CG2 ILE A   1     -26.248   9.431 -10.888  1.00  0.00     0.012 C 
BRANCH   2   4
ATOM      4  CG1 ILE A   1     -24.117   8.570 -11.956  1.00  0.00     0.002 C 
ATOM      5  CD1 ILE A   1     -24.099   9.999 -12.492  1.00  0.00     0.005 C 
ENDBRANCH   2   4
ENDBRANCH   1   2
BRANCH   1   6
ATOM      6  C   ILE A   1     -25.701   5.989  -9.860  1.00  0.00     0.174 C 
ATOM      7  O   ILE A   1     -25.921   6.330  -8.705  1.00  0.00    -0.648 OA
BRANCH   6   8
ATOM      8  OXT ILE A   1     -25.307   4.736 -10.181  1.00  0.00    -0.775 OA
ATOM      9  HXT ILE A   1     -24.440   4.685 -10.624  1.00  0.00     0.167 HD
ENDBRANCH   6   8
ENDBRANCH   1   6
BRANCH   1  10
ATOM     10  N   ILE A   1     -27.334   7.092 -11.315  1.00  0.00     0.093 N 
ATOM     11  H1  ILE A   1     -27.707   7.656 -10.545  1.00  0.00     0.314 HD
ATOM     12  H2  ILE A   1     -27.796   6.187 -11.192  1.00  0.00     0.314 HD
ENDBRANCH   1  10
TORSDOF 5
BEGIN_RES ARG D 557
REMARK  4 active torsions:
REMARK  status: ('A' for Active; 'I' for Inactive)
REMARK    1  A    between atoms: CA   and  CB  
REMARK    2  A    between atoms: CB   and  CG  
REMARK    3  A    between atoms: CG   and  CD  
REMARK    4  A    between atoms: CD   and  NE  
REMARK       I    between atoms: NE   and  CZ  
REMARK       I    between atoms: CZ   and  NH1 
REMARK       I    between atoms: CZ   and  NH2 
ROOT
ATOM      1  CA  ARG D 557     -26.217   2.705 -17.014  1.00 35.49     0.159 C 
ENDROOT
BRANCH   1   2
ATOM      2  CB  ARG D 557     -26.789   1.319 -17.183  1.00 35.49     0.034 C 
BRANCH   2   3
ATOM      3  CG  ARG D 557     -25.864   0.195 -16.994  1.00 35.49     0.027 C 
BRANCH   3   4
ATOM      4  CD  ARG D 557     -26.286  -0.705 -15.896  1.00 35.49     0.116 C 
BRANCH   4   5
ATOM      5  NE  ARG D 557     -25.235  -0.921 -14.937  1.00 35.49    -0.212 N 
ATOM      6  CZ  ARG D 557     -24.947  -2.065 -14.358  1.00 35.49     0.666 C 
ATOM      7  NH1 ARG D 557     -25.626  -3.171 -14.597  1.00 35.49    -0.235 N 
ATOM      8  NH2 ARG D 557     -23.945  -2.081 -13.528  1.00 35.49    -0.235 N 
ATOM      9  HH  ARG D 557     -26.288  -3.184 -15.141  1.00 35.49     0.174 HD
ATOM     10  HH  ARG D 557     -25.390  -3.889 -14.192  1.00 35.49     0.174 HD
ATOM     11  HH  ARG D 557     -23.519  -1.353 -13.399  1.00 35.49     0.174 HD
ATOM     12  HH  ARG D 557     -23.726  -2.802 -13.139  1.00 35.49     0.174 HD
ATOM     13  HE  ARG D 557     -24.793  -0.245 -14.670  1.00 35.49     0.178 HD
ENDBRANCH   4   5
ENDBRANCH   3   4
ENDBRANCH   2   3
ENDBRANCH   1   2
END_RES ARG D 557
BEGIN_RES GLU D 570
REMARK  3 active torsions:
REMARK  status: ('A' for Active; 'I' for Inactive)
REMARK    5  A    between atoms: CA   and  CB  
REMARK    6  A    between atoms: CB   and  CG  
REMARK    7  A    between atoms: CG   and  CD  
ROOT
ATOM     14  CA  GLU D 570     -18.033  -6.348 -13.375  1.00 32.92     0.160 C 
ENDROOT
BRANCH  14  15
ATOM     15  CB  GLU D 570     -19.500  -6.345 -13.794  1.00 32.92     0.043 C 
BRANCH  15  16
ATOM     16  CG  GLU D 570     -20.450  -5.570 -12.954  1.00 32.92     0.100 C 
BRANCH  16  17
ATOM     17  CD  GLU D 570     -21.676  -5.121 -13.714  1.00 32.92     0.185 C 
ATOM     18  OE1 GLU D 570     -21.617  -5.021 -14.955  1.00 32.92    -0.647 OA
ATOM     19  OE2 GLU D 570     -22.703  -4.850 -13.060  1.00 32.92    -0.647 OA
ENDBRANCH  16  17
ENDBRANCH  15  16
ENDBRANCH  14  15
END_RES GLU D 570
ENDMDL
MODEL 6
REMARK VINA RESULT:      -4.7      2.394      3.139
REMARK  5 active torsions:
REMARK  status: ('A' for Active; 'I' for Inactive)
REMARK    1  A    between atoms: CG1_2  and  CB_3 
REMARK    2  A    between atoms: CB_3  and  CA_5 
REMARK    3  A    between atoms: CA_5  and  C_6 
REMARK    4  A    between atoms: CA_5  and  N_9 
REMARK    5  A    between atoms: C_6  and  OXT_8 
ROOT
ATOM      1  CA  ILE A   1     -21.944  -4.565  -7.579  1.00  0.00     0.318 C 
ENDROOT
BRANCH   1   2
ATOM      2  CB  ILE A   1     -21.756  -4.660  -9.119  1.00  0.00     0.024 C 
ATOM      3  CG2 ILE A   1     -20.336  -4.220  -9.517  1.00  0.00     0.012 C 
BRANCH   2   4
ATOM      4  CG1 ILE A   1     -22.812  -3.821  -9.876  1.00  0.00     0.002 C 
ATOM      5  CD1 ILE A   1     -24.206  -4.442  -9.907  1.00  0.00     0.005 C 
ENDBRANCH   2   4
ENDBRANCH   1   2
BRANCH   1   6
ATOM      6  C   ILE A   1     -20.992  -5.508  -6.805  1.00  0.00     0.174 C 
ATOM      7  O   ILE A   1     -20.920  -6.715  -7.001  1.00  0.00    -0.648 OA
BRANCH   6   8
ATOM      8  OXT ILE A   1     -20.209  -4.877  -5.901  1.00  0.00    -0.775 OA
ATOM      9  HXT ILE A   1     -19.252  -4.984  -6.049  1.00  0.00     0.167 HD
ENDBRANCH   6   8
ENDBRANCH   1   6
BRANCH   1  10
ATOM     10  N   ILE A   1     -21.691  -3.181  -7.111  1.00  0.00     0.093 N 
ATOM     11  H1  ILE A   1     -22.468  -2.597  -7.438  1.00  0.00     0.314 HD
ATOM     12  H2  ILE A   1     -20.882  -2.804  -7.612  1.00  0.00     0.314 HD
ENDBRANCH   1  10
TORSDOF 5
BEGIN_RES ARG D 557
REMARK  4 active torsions:
REMARK  status: ('A' for Active; 'I' for Inactive)
REMARK    1  A    between atoms: CA   and  CB  
REMARK    2  A    between atoms: CB   and  CG  
REMARK    3  A    between atoms: CG   and  CD  
REMARK    4  A    between atoms: CD   and  NE  
REMARK       I    between atoms: NE   and  CZ  
REMARK       I    between atoms: CZ   and  NH1 
REMARK       I    between atoms: CZ   and  NH2 
ROOT
ATOM      1  CA  ARG D 557     -26.217   2.705 -17.014  1.00 35.49     0.159 C 
ENDROOT
BRANCH   1   2
ATOM      2  CB  ARG D 557     -26.789   1.319 -17.183  1.00 35.49     0.034 C 
BRANCH   2   3
ATOM      3  CG  ARG D 557     -25.866   0.195 -16.986  1.00 35.49     0.027 C 
BRANCH   3   4
ATOM      4  CD  ARG D 557     -26.299  -0.706 -15.893  1.00 35.49     0.116 C 
BRANCH   4   5
ATOM      5  NE  ARG D 557     -25.250  -0.943 -14.937  1.00 35.49    -0.212 N 
ATOM      6  CZ  ARG D 557     -24.979  -2.093 -14.362  1.00 35.49     0.666 C 
ATOM      7  NH1 ARG D 557     -25.679  -3.187 -14.602  1.00 35.49    -0.235 N 
ATOM      8  NH2 ARG D 557     -23.976  -2.130 -13.535  1.00 35.49    -0.235 N 
ATOM      9  HH  ARG D 557     -26.342  -3.187 -15.145  1.00 35.49     0.174 HD
ATOM     10  HH  ARG D 557     -25.454  -3.910 -14.200  1.00 35.49     0.174 HD
ATOM     11  HH  ARG D 557     -23.538  -1.410 -13.405  1.00 35.49     0.174 HD
ATOM     12  HH  ARG D 557     -23.769  -2.855 -13.148  1.00 35.49     0.174 HD
ATOM     13  HE  ARG D 557     -24.795  -0.276 -14.670  1.00 35.49     0.178 HD
ENDBRANCH   4   5
ENDBRANCH   3   4
ENDBRANCH   2   3
ENDBRANCH   1   2
END_RES ARG D 557
BEGIN_RES GLU D 570
REMARK  3 active torsions:
REMARK  status: ('A' for Active; 'I' for Inactive)
REMARK    5  A    between atoms: CA   and  CB  
REMARK    6  A    between atoms: CB   and  CG  
REMARK    7  A    between atoms: CG   and  CD  
ROOT
ATOM     14  CA  GLU D 570     -18.033  -6.348 -13.375  1.00 32.92     0.160 C 
ENDROOT
BRANCH  14  15
ATOM     15  CB  GLU D 570     -19.500  -6.345 -13.794  1.00 32.92     0.043 C 
BRANCH  15  16
ATOM     16  CG  GLU D 570     -20.441  -5.525 -12.987  1.00 32.92     0.100 C 
BRANCH  16  17
ATOM     17  CD  GLU D 570     -21.681  -5.127 -13.753  1.00 32.92     0.185 C 
ATOM     18  OE1 GLU D 570     -22.754  -4.987 -13.135  1.00 32.92    -0.647 OA
ATOM     19  OE2 GLU D 570     -21.582  -4.970 -14.986  1.00 32.92    -0.647 OA
ENDBRANCH  16  17
ENDBRANCH  15  16
ENDBRANCH  14  15
END_RES GLU D 570
ENDMDL
MODEL 7
REMARK VINA RESULT:      -4.7      4.223      6.897
REMARK  5 active torsions:
REMARK  status: ('A' for Active; 'I' for Inactive)
REMARK    1  A    between atoms: CG1_2  and  CB_3 
REMARK    2  A    between atoms: CB_3  and  CA_5 
REMARK    3  A    between atoms: CA_5  and  C_6 
REMARK    4  A    between atoms: CA_5  and  N_9 
REMARK    5  A    between atoms: C_6  and  OXT_8 
ROOT
ATOM      1  CA  ILE A   1     -28.025  -6.245 -16.570  1.00  0.00     0.318 C 
ENDROOT
BRANCH   1   2
ATOM      2  CB  ILE A   1     -28.717  -6.234 -17.962  1.00  0.00     0.024 C 
ATOM      3  CG2 ILE A   1     -29.330  -4.852 -18.247  1.00  0.00     0.012 C 
BRANCH   2   4
ATOM      4  CG1 ILE A   1     -29.797  -7.336 -18.071  1.00  0.00     0.002 C 
ATOM      5  CD1 ILE A   1     -31.169  -6.927 -17.543  1.00  0.00     0.005 C 
ENDBRANCH   2   4
ENDBRANCH   1   2
BRANCH   1   6
ATOM      6  C   ILE A   1     -26.541  -5.810 -16.640  1.00  0.00     0.174 C 
ATOM      7  O   ILE A   1     -25.715  -6.324 -17.384  1.00  0.00    -0.648 OA
BRANCH   6   8
ATOM      8  OXT ILE A   1     -26.233  -4.779 -15.822  1.00  0.00    -0.775 OA
ATOM      9  HXT ILE A   1     -25.997  -3.953 -16.283  1.00  0.00     0.167 HD
ENDBRANCH   6   8
ENDBRANCH   1   6
BRANCH   1  10
ATOM     10  N   ILE A   1     -28.723  -5.329 -15.636  1.00  0.00     0.093 N 
ATOM     11  H1  ILE A   1     -28.068  -4.579 -15.392  1.00  0.00     0.314 HD
ATOM     12  H2  ILE A   1     -28.873  -5.813 -14.747  1.00  0.00     0.314 HD
ENDBRANCH   1  10
TORSDOF 5
BEGIN_RES ARG D 557
REMARK  4 active torsions:
REMARK  status: ('A' for Active; 'I' for Inactive)
REMARK    1  A    between atoms: CA   and  CB  
REMARK    2  A    between atoms: CB   and  CG  
REMARK    3  A    between atoms: CG   and  CD  
REMARK    4  A    between atoms: CD   and  NE  
REMARK       I    between atoms: NE   and  CZ  
REMARK       I    between atoms: CZ   and  NH1 
REMARK       I    between atoms: CZ   and  NH2 
ROOT
ATOM      1  CA  ARG D 557     -26.217   2.705 -17.014  1.00 35.49     0.159 C 
ENDROOT
BRANCH   1   2
ATOM      2  CB  ARG D 557     -26.789   1.319 -17.183  1.00 35.49     0.034 C 
BRANCH   2   3
ATOM      3  CG  ARG D 557     -25.838   0.201 -17.133  1.00 35.49     0.027 C 
BRANCH   3   4
ATOM      4  CD  ARG D 557     -24.768   0.415 -16.132  1.00 35.49     0.116 C 
BRANCH   4   5
ATOM      5  NE  ARG D 557     -24.895  -0.472 -15.006  1.00 35.49    -0.212 N 
ATOM      6  CZ  ARG D 557     -24.058  -1.435 -14.688  1.00 35.49     0.666 C 
ATOM      7  NH1 ARG D 557     -22.984  -1.706 -15.406  1.00 35.49    -0.235 N 
ATOM      8  NH2 ARG D 557     -24.319  -2.128 -13.618  1.00 35.49    -0.235 N 
ATOM      9  HH  ARG D 557     -22.792  -1.261 -16.113  1.00 35.49     0.174 HD
ATOM     10  HH  ARG D 557     -22.473  -2.344 -15.149  1.00 35.49     0.174 HD
ATOM     11  HH  ARG D 557     -25.016  -1.925 -13.170  1.00 35.49     0.174 HD
ATOM     12  HH  ARG D 557     -23.801  -2.754 -13.379  1.00 35.49     0.174 HD
ATOM     13  HE  ARG D 557     -25.597  -0.415 -14.530  1.00 35.49     0.178 HD
ENDBRANCH   4   5
ENDBRANCH   3   4
ENDBRANCH   2   3
ENDBRANCH   1   2
END_RES ARG D 557
BEGIN_RES GLU D 570
REMARK  3 active torsions:
REMARK  status: ('A' for Active; 'I' for Inactive)
REMARK    5  A    between atoms: CA   and  CB  
REMARK    6  A    between atoms: CB   and  CG  
REMARK    7  A    between atoms: CG   and  CD  
ROOT
ATOM     14  CA  GLU D 570     -18.033  -6.348 -13.375  1.00 32.92     0.160 C 
ENDROOT
BRANCH  14  15
ATOM     15  CB  GLU D 570     -19.500  -6.345 -13.794  1.00 32.92     0.043 C 
BRANCH  15  16
ATOM     16  CG  GLU D 570     -20.448  -5.562 -12.960  1.00 32.92     0.100 C 
BRANCH  16  17
ATOM     17  CD  GLU D 570     -21.638  -5.053 -13.741  1.00 32.92     0.185 C 
ATOM     18  OE1 GLU D 570     -21.582  -5.034 -14.985  1.00 32.92    -0.647 OA
ATOM     19  OE2 GLU D 570     -22.630  -4.654 -13.100  1.00 32.92    -0.647 OA
ENDBRANCH  16  17
ENDBRANCH  15  16
ENDBRANCH  14  15
END_RES GLU D 570
ENDMDL
MODEL 8
REMARK VINA RESULT:      -4.6     10.442     12.681
REMARK  5 active torsions:
REMARK  status: ('A' for Active; 'I' for Inactive)
REMARK    1  A    between atoms: CG1_2  and  CB_3 
REMARK    2  A    between atoms: CB_3  and  CA_5 
REMARK    3  A    between atoms: CA_5  and  C_6 
REMARK    4  A    between atoms: CA_5  and  N_9 
REMARK    5  A    between atoms: C_6  and  OXT_8 
ROOT
ATOM      1  CA  ILE A   1     -11.079   5.025 -19.687  1.00  0.00     0.318 C 
ENDROOT
BRANCH   1   2
ATOM      2  CB  ILE A   1     -10.928   4.168 -20.975  1.00  0.00     0.024 C 
ATOM      3  CG2 ILE A   1     -11.497   4.921 -22.192  1.00  0.00     0.012 C 
BRANCH   2   4
ATOM      4  CG1 ILE A   1     -11.612   2.789 -20.827  1.00  0.00     0.002 C 
ATOM      5  CD1 ILE A   1     -13.054   2.744 -21.325  1.00  0.00     0.005 C 
ENDBRANCH   2   4
ENDBRANCH   1   2
BRANCH   1   6
ATOM      6  C   ILE A   1      -9.744   5.672 -19.244  1.00  0.00     0.174 C 
ATOM      7  O   ILE A   1      -8.900   6.094 -20.024  1.00  0.00    -0.648 OA
BRANCH   6   8
ATOM      8  OXT ILE A   1      -9.598   5.764 -17.902  1.00  0.00    -0.775 OA
ATOM      9  HXT ILE A   1     -10.391   5.519 -17.391  1.00  0.00     0.167 HD
ENDBRANCH   6   8
ENDBRANCH   1   6
BRANCH   1  10
ATOM     10  N   ILE A   1     -12.062   6.114 -19.901  1.00  0.00     0.093 N 
ATOM     11  H1  ILE A   1     -11.536   6.984 -20.034  1.00  0.00     0.314 HD
ATOM     12  H2  ILE A   1     -12.572   6.276 -19.028  1.00  0.00     0.314 HD
ENDBRANCH   1  10
TORSDOF 5
BEGIN_RES ARG D 557
REMARK  4 active torsions:
REMARK  status: ('A' for Active; 'I' for Inactive)
REMARK    1  A    between atoms: CA   and  CB  
REMARK    2  A    between atoms: CB   and  CG  
REMARK    3  A    between atoms: CG   and  CD  
REMARK    4  A    between atoms: CD   and  NE  
REMARK       I    between atoms: NE   and  CZ  
REMARK       I    between atoms: CZ   and  NH1 
REMARK       I    between atoms: CZ   and  NH2 
ROOT
ATOM      1  CA  ARG D 557     -26.217   2.705 -17.014  1.00 35.49     0.159 C 
ENDROOT
BRANCH   1   2
ATOM      2  CB  ARG D 557     -26.789   1.319 -17.183  1.00 35.49     0.034 C 
BRANCH   2   3
ATOM      3  CG  ARG D 557     -25.932   0.197 -16.782  1.00 35.49     0.027 C 
BRANCH   3   4
ATOM      4  CD  ARG D 557     -26.684  -0.862 -16.071  1.00 35.49     0.116 C 
BRANCH   4   5
ATOM      5  NE  ARG D 557     -25.933  -1.421 -14.979  1.00 35.49    -0.212 N 
ATOM      6  CZ  ARG D 557     -25.906  -2.690 -14.635  1.00 35.49     0.666 C 
ATOM      7  NH1 ARG D 557     -26.603  -3.612 -15.272  1.00 35.49    -0.235 N 
ATOM      8  NH2 ARG D 557     -25.150  -3.023 -13.629  1.00 35.49    -0.235 N 
ATOM      9  HH  ARG D 557     -27.105  -3.416 -15.938  1.00 35.49     0.174 HD
ATOM     10  HH  ARG D 557     -26.544  -4.424 -15.004  1.00 35.49     0.174 HD
ATOM     11  HH  ARG D 557     -24.705  -2.407 -13.241  1.00 35.49     0.174 HD
ATOM     12  HH  ARG D 557     -25.104  -3.832 -13.380  1.00 35.49     0.174 HD
ATOM     13  HE  ARG D 557     -25.511  -0.887 -14.469  1.00 35.49     0.178 HD
ENDBRANCH   4   5
ENDBRANCH   3   4
ENDBRANCH   2   3
ENDBRANCH   1   2
END_RES ARG D 557
BEGIN_RES GLU D 570
REMARK  3 active torsions:
REMARK  status: ('A' for Active; 'I' for Inactive)
REMARK    5  A    between atoms: CA   and  CB  
REMARK    6  A    between atoms: CB   and  CG  
REMARK    7  A    between atoms: CG   and  CD  
ROOT
ATOM     14  CA  GLU D 570     -18.033  -6.348 -13.375  1.00 32.92     0.160 C 
ENDROOT
BRANCH  14  15
ATOM     15  CB  GLU D 570     -19.500  -6.345 -13.794  1.00 32.92     0.043 C 
BRANCH  15  16
ATOM     16  CG  GLU D 570     -20.440  -5.524 -12.988  1.00 32.92     0.100 C 
BRANCH  16  17
ATOM     17  CD  GLU D 570     -21.747  -5.258 -13.698  1.00 32.92     0.185 C 
ATOM     18  OE1 GLU D 570     -22.228  -6.141 -14.433  1.00 32.92    -0.647 OA
ATOM     19  OE2 GLU D 570     -22.288  -4.147 -13.530  1.00 32.92    -0.647 OA
ENDBRANCH  16  17
ENDBRANCH  15  16
ENDBRANCH  14  15
END_RES GLU D 570
ENDMDL
MODEL 9
REMARK VINA RESULT:      -4.4      1.933      2.659
REMARK  5 active torsions:
REMARK  status: ('A' for Active; 'I' for Inactive)
REMARK    1  A    between atoms: CG1_2  and  CB_3 
REMARK    2  A    between atoms: CB_3  and  CA_5 
REMARK    3  A    between atoms: CA_5  and  C_6 
REMARK    4  A    between atoms: CA_5  and  N_9 
REMARK    5  A    between atoms: C_6  and  OXT_8 
ROOT
ATOM      1  CA  ILE A   1     -22.765  -4.514  -8.684  1.00  0.00     0.318 C 
ENDROOT
BRANCH   1   2
ATOM      2  CB  ILE A   1     -22.709  -3.664  -9.984  1.00  0.00     0.024 C 
ATOM      3  CG2 ILE A   1     -24.131  -3.358 -10.489  1.00  0.00     0.012 C 
BRANCH   2   4
ATOM      4  CG1 ILE A   1     -21.884  -4.363 -11.089  1.00  0.00     0.002 C 
ATOM      5  CD1 ILE A   1     -20.462  -3.832 -11.244  1.00  0.00     0.005 C 
ENDBRANCH   2   4
ENDBRANCH   1   2
BRANCH   1   6
ATOM      6  C   ILE A   1     -21.486  -4.372  -7.824  1.00  0.00     0.174 C 
ATOM      7  O   ILE A   1     -21.250  -3.406  -7.109  1.00  0.00    -0.648 OA
BRANCH   6   8
ATOM      8  OXT ILE A   1     -20.651  -5.433  -7.903  1.00  0.00    -0.775 OA
ATOM      9  HXT ILE A   1     -19.996  -5.381  -8.623  1.00  0.00     0.167 HD
ENDBRANCH   6   8
ENDBRANCH   1   6
BRANCH   1  10
ATOM     10  N   ILE A   1     -23.921  -4.109  -7.848  1.00  0.00     0.093 N 
ATOM     11  H1  ILE A   1     -24.100  -3.116  -8.030  1.00  0.00     0.314 HD
ATOM     12  H2  ILE A   1     -23.639  -4.124  -6.864  1.00  0.00     0.314 HD
ENDBRANCH   1  10
TORSDOF 5
BEGIN_RES ARG D 557
REMARK  4 active torsions:
REMARK  status: ('A' for Active; 'I' for Inactive)
REMARK    1  A    between atoms: CA   and  CB  
REMARK    2  A    between atoms: CB   and  CG  
REMARK    3  A    between atoms: CG   and  CD  
REMARK    4  A    between atoms: CD   and  NE  
REMARK       I    between atoms: NE   and  CZ  
REMARK       I    between atoms: CZ   and  NH1 
REMARK       I    between atoms: CZ   and  NH2 
ROOT
ATOM      1  CA  ARG D 557     -26.217   2.705 -17.014  1.00 35.49     0.159 C 
ENDROOT
BRANCH   1   2
ATOM      2  CB  ARG D 557     -26.789   1.319 -17.183  1.00 35.49     0.034 C 
BRANCH   2   3
ATOM      3  CG  ARG D 557     -25.935   0.197 -16.774  1.00 35.49     0.027 C 
BRANCH   3   4
ATOM      4  CD  ARG D 557     -26.698  -0.876 -16.098  1.00 35.49     0.116 C 
BRANCH   4   5
ATOM      5  NE  ARG D 557     -25.898  -1.587 -15.136  1.00 35.49    -0.212 N 
ATOM      6  CZ  ARG D 557     -25.984  -2.869 -14.862  1.00 35.49     0.666 C 
ATOM      7  NH1 ARG D 557     -26.857  -3.664 -15.455  1.00 35.49    -0.235 N 
ATOM      8  NH2 ARG D 557     -25.163  -3.351 -13.975  1.00 35.49    -0.235 N 
ATOM      9  HH  ARG D 557     -27.405  -3.369 -16.043  1.00 35.49     0.174 HD
ATOM     10  HH  ARG D 557     -26.865  -4.492 -15.238  1.00 35.49     0.174 HD
ATOM     11  HH  ARG D 557     -24.605  -2.816 -13.614  1.00 35.49     0.174 HD
ATOM     12  HH  ARG D 557     -25.186  -4.175 -13.775  1.00 35.49     0.174 HD
ATOM     13  HE  ARG D 557     -25.358  -1.138 -14.655  1.00 35.49     0.178 HD
ENDBRANCH   4   5
ENDBRANCH   3   4
ENDBRANCH   2   3
ENDBRANCH   1   2
END_RES ARG D 557
BEGIN_RES GLU D 570
REMARK  3 active torsions:
REMARK  status: ('A' for Active; 'I' for Inactive)
REMARK    5  A    between atoms: CA   and  CB  
REMARK    6  A    between atoms: CB   and  CG  
REMARK    7  A    between atoms: CG   and  CD  
ROOT
ATOM     14  CA  GLU D 570     -18.033  -6.348 -13.375  1.00 32.92     0.160 C 
ENDROOT
BRANCH  14  15
ATOM     15  CB  GLU D 570     -19.500  -6.345 -13.794  1.00 32.92     0.043 C 
BRANCH  15  16
ATOM     16  CG  GLU D 570     -19.801  -6.545 -15.235  1.00 32.92     0.100 C 
BRANCH  16  17
ATOM     17  CD  GLU D 570     -20.855  -5.596 -15.755  1.00 32.92     0.185 C 
ATOM     18  OE1 GLU D 570     -20.974  -5.439 -16.985  1.00 32.92    -0.647 OA
ATOM     19  OE2 GLU D 570     -21.558  -4.990 -14.922  1.00 32.92    -0.647 OA
ENDBRANCH  16  17
ENDBRANCH  15  16
ENDBRANCH  14  15
END_RES GLU D 570
ENDMDL
