MODEL 1
REMARK VINA RESULT:      -6.7      0.000      0.000
REMARK WARNING: 32 MAX_TORS EXCEEDED!!!
REMARK  60 active torsions:
REMARK  status: ('A' for Active; 'I' for Inactive)
REMARK    1  A    between atoms: C_2  and  C_3 
REMARK    2  A    between atoms: C_3  and  O_5 
REMARK    3  A    between atoms: O_5  and  C_6 
REMARK    4  A    between atoms: C_6  and  C_7 
REMARK    5  A    between atoms: C_8  and  O_28 
REMARK    6  A    between atoms: C_9  and  O_23 
REMARK    7  A    between atoms: C_10  and  O_18 
REMARK    8  A    between atoms: C_11  and  O_13 
REMARK    9  A    between atoms: O_13  and  C_14 
REMARK   10  A    between atoms: C_14  and  C_16 
REMARK   11  A    between atoms: O_18  and  C_19 
REMARK   12  A    between atoms: C_19  and  C_21 
REMARK   13  A    between atoms: O_23  and  C_24 
REMARK   14  A    between atoms: C_24  and  C_26 
REMARK   15  A    between atoms: O_28  and  C_29 
REMARK   16  A    between atoms: C_30  and  O_51 
REMARK   17  A    between atoms: C_31  and  O_46 
REMARK   18  A    between atoms: C_32  and  O_41 
REMARK   19  A    between atoms: C_33  and  C_35 
REMARK   20  A    between atoms: C_35  and  O_36 
REMARK   21  A    between atoms: O_36  and  C_37 
REMARK   22  A    between atoms: C_37  and  C_39 
REMARK   23  A    between atoms: O_41  and  C_42 
REMARK   24  A    between atoms: C_42  and  C_44 
REMARK   25  A    between atoms: O_46  and  C_47 
REMARK   26  A    between atoms: C_47  and  C_49 
REMARK   27  A    between atoms: O_51  and  C_52 
REMARK   28  A    between atoms: C_52  and  C_54 
REMARK   29  A    between atoms: C_57  and  O_59 
REMARK   30  A    between atoms: O_59  and  C_60 
REMARK   31  A    between atoms: C_60  and  C_61 
REMARK   32  A    between atoms: C_62  and  O_79 
REMARK   33  A    between atoms: C_63  and  O_75 
REMARK   34  A    between atoms: C_64  and  O_71 
REMARK   35  A    between atoms: C_65  and  O_67 
REMARK   36  A    between atoms: O_67  and  C_68 
REMARK   37  A    between atoms: O_71  and  C_72 
REMARK   38  A    between atoms: O_75  and  C_76 
REMARK   39  A    between atoms: O_79  and  C_80 
REMARK   40  A    between atoms: C_81  and  O_99 
REMARK   41  A    between atoms: C_82  and  O_95 
REMARK   42  A    between atoms: C_83  and  O_91 
REMARK   43  A    between atoms: C_84  and  C_86 
REMARK   44  A    between atoms: C_86  and  O_87 
REMARK   45  A    between atoms: O_87  and  C_88 
REMARK   46  A    between atoms: O_91  and  C_92 
REMARK   47  A    between atoms: O_95  and  C_96 
REMARK   48  A    between atoms: O_99  and  C_100 
REMARK   49  A    between atoms: C_103  and  C_104 
REMARK   50  A    between atoms: C_103  and  O_125 
REMARK   51  A    between atoms: C_105  and  O_124 
REMARK   52  A    between atoms: C_106  and  O_123 
REMARK   53  A    between atoms: C_107  and  O_122 
REMARK   54  A    between atoms: C_108  and  O_110 
REMARK   55  A    between atoms: O_110  and  C_111 
REMARK   56  A    between atoms: C_112  and  C_120 
REMARK   57  A    between atoms: C_114  and  O_119 
REMARK   58  A    between atoms: C_115  and  O_118 
REMARK   59  A    between atoms: C_116  and  O_117 
REMARK   60  A    between atoms: C_120  and  O_121 
ROOT
HETATM    1  O   UNL     3     -26.984  -6.597 -16.534  1.00  0.00    -0.348 OA
ENDROOT
BRANCH   1   2
HETATM    2  C   UNL     3     -25.789  -7.060 -17.188  1.00  0.00     0.292 C 
HETATM    3  C   UNL     3     -24.678  -7.150 -16.126  1.00  0.00     0.204 C 
HETATM    4  C   UNL     3     -23.340  -7.629 -16.716  1.00  0.00     0.183 C 
HETATM    5  C   UNL     3     -22.963  -6.760 -17.927  1.00  0.00     0.180 C 
HETATM    6  C   UNL     3     -24.150  -6.671 -18.917  1.00  0.00     0.179 C 
HETATM    7  O   UNL     3     -25.340  -6.209 -18.247  1.00  0.00    -0.348 OA
BRANCH   3   8
HETATM    8  O   UNL     3     -24.481  -5.853 -15.536  1.00  0.00    -0.388 OA
HETATM    9  H   UNL     3     -25.229  -5.247 -15.707  1.00  0.00     0.210 HD
ENDBRANCH   3   8
BRANCH   4  10
HETATM   10  O   UNL     3     -22.300  -7.625 -15.737  1.00  0.00    -0.390 OA
HETATM   11  H   UNL     3     -21.493  -8.061 -16.071  1.00  0.00     0.210 HD
ENDBRANCH   4  10
BRANCH   5  12
HETATM   12  O   UNL     3     -21.842  -7.267 -18.645  1.00  0.00    -0.390 OA
HETATM   13  H   UNL     3     -21.728  -8.227 -18.521  1.00  0.00     0.210 HD
ENDBRANCH   5  12
BRANCH   6  14
HETATM   14  C   UNL     3     -24.352  -8.005 -19.695  1.00  0.00     0.198 C 
BRANCH  14  15
HETATM   15  O   UNL     3     -23.349  -8.205 -20.680  1.00  0.00    -0.398 OA
HETATM   16  H   UNL     3     -23.021  -9.119 -20.622  1.00  0.00     0.209 HD
ENDBRANCH  14  15
ENDBRANCH   6  14
ENDBRANCH   1   2
BRANCH   1  17
HETATM   17  C   UNL     3     -27.755  -5.589 -17.199  1.00  0.00     0.187 C 
HETATM   18  C   UNL     3     -28.982  -6.080 -17.983  1.00  0.00     0.180 C 
HETATM   19  O   UNL     3     -29.837  -4.980 -18.404  1.00  0.00    -0.349 OA
HETATM   20  C   UNL     3     -30.325  -4.170 -17.337  1.00  0.00     0.288 C 
HETATM   21  C   UNL     3     -29.161  -3.539 -16.624  1.00  0.00     0.204 C 
HETATM   22  C   UNL     3     -28.170  -4.568 -16.126  1.00  0.00     0.183 C 
BRANCH  18  23
HETATM   23  C   UNL     3     -29.889  -7.128 -17.339  1.00  0.00     0.198 C 
BRANCH  23  24
HETATM   24  O   UNL     3     -29.132  -8.344 -17.335  1.00  0.00    -0.398 OA
HETATM   25  H   UNL     3     -28.220  -8.052 -17.079  1.00  0.00     0.209 HD
ENDBRANCH  23  24
ENDBRANCH  18  23
BRANCH  20  26
HETATM   26  O   UNL     3     -31.003  -3.067 -17.928  1.00  0.00    -0.369 OA
HETATM   27  H   UNL     3     -31.691  -3.414 -18.531  1.00  0.00     0.212 HD
ENDBRANCH  20  26
BRANCH  21  28
HETATM   28  O   UNL     3     -28.570  -2.749 -17.664  1.00  0.00    -0.388 OA
HETATM   29  H   UNL     3     -27.622  -3.005 -17.666  1.00  0.00     0.210 HD
ENDBRANCH  21  28
BRANCH  22  30
HETATM   30  O   UNL     3     -27.006  -3.880 -15.669  1.00  0.00    -0.390 OA
HETATM   31  H   UNL     3     -27.179  -2.922 -15.764  1.00  0.00     0.210 HD
ENDBRANCH  22  30
ENDBRANCH   1  17
TORSDOF 60
BEGIN_RES ARG D 557
REMARK  4 active torsions:
REMARK  status: ('A' for Active; 'I' for Inactive)
REMARK    1  A    between atoms: CA   and  CB  
REMARK    2  A    between atoms: CB   and  CG  
REMARK    3  A    between atoms: CG   and  CD  
REMARK    4  A    between atoms: CD   and  NE  
REMARK       I    between atoms: NE   and  CZ  
REMARK       I    between atoms: CZ   and  NH1 
REMARK       I    between atoms: CZ   and  NH2 
ROOT
ATOM      1  CA  ARG D 557     -26.217   2.705 -17.014  1.00 35.49     0.159 C 
ENDROOT
BRANCH   1   2
ATOM      2  CB  ARG D 557     -26.789   1.319 -17.183  1.00 35.49     0.034 C 
BRANCH   2   3
ATOM      3  CG  ARG D 557     -25.839   0.201 -17.128  1.00 35.49     0.027 C 
BRANCH   3   4
ATOM      4  CD  ARG D 557     -24.778   0.412 -16.117  1.00 35.49     0.116 C 
BRANCH   4   5
ATOM      5  NE  ARG D 557     -24.903  -0.491 -15.003  1.00 35.49    -0.212 N 
ATOM      6  CZ  ARG D 557     -24.058  -1.448 -14.691  1.00 35.49     0.666 C 
ATOM      7  NH1 ARG D 557     -22.974  -1.697 -15.403  1.00 35.49    -0.235 N 
ATOM      8  NH2 ARG D 557     -24.319  -2.157 -13.632  1.00 35.49    -0.235 N 
ATOM      9  HH  ARG D 557     -22.782  -1.241 -16.103  1.00 35.49     0.174 HD
ATOM     10  HH  ARG D 557     -22.458  -2.332 -15.150  1.00 35.49     0.174 HD
ATOM     11  HH  ARG D 557     -25.022  -1.969 -13.187  1.00 35.49     0.174 HD
ATOM     12  HH  ARG D 557     -23.795  -2.781 -13.397  1.00 35.49     0.174 HD
ATOM     13  HE  ARG D 557     -25.610  -0.448 -14.532  1.00 35.49     0.178 HD
ENDBRANCH   4   5
ENDBRANCH   3   4
ENDBRANCH   2   3
ENDBRANCH   1   2
END_RES ARG D 557
BEGIN_RES GLU D 570
REMARK  3 active torsions:
REMARK  status: ('A' for Active; 'I' for Inactive)
REMARK    5  A    between atoms: CA   and  CB  
REMARK    6  A    between atoms: CB   and  CG  
REMARK    7  A    between atoms: CG   and  CD  
ROOT
ATOM     14  CA  GLU D 570     -18.033  -6.348 -13.375  1.00 32.92     0.160 C 
ENDROOT
BRANCH  14  15
ATOM     15  CB  GLU D 570     -19.500  -6.345 -13.794  1.00 32.92     0.043 C 
BRANCH  15  16
ATOM     16  CG  GLU D 570     -20.444  -5.539 -12.977  1.00 32.92     0.100 C 
BRANCH  16  17
ATOM     17  CD  GLU D 570     -21.646  -5.066 -13.760  1.00 32.92     0.185 C 
ATOM     18  OE1 GLU D 570     -22.695  -4.786 -13.148  1.00 32.92    -0.647 OA
ATOM     19  OE2 GLU D 570     -21.544  -4.992 -15.000  1.00 32.92    -0.647 OA
ENDBRANCH  16  17
ENDBRANCH  15  16
ENDBRANCH  14  15
END_RES GLU D 570
ENDMDL
MODEL 2
REMARK VINA RESULT:      -5.9      3.691      7.203
REMARK WARNING: 32 MAX_TORS EXCEEDED!!!
REMARK  60 active torsions:
REMARK  status: ('A' for Active; 'I' for Inactive)
REMARK    1  A    between atoms: C_2  and  C_3 
REMARK    2  A    between atoms: C_3  and  O_5 
REMARK    3  A    between atoms: O_5  and  C_6 
REMARK    4  A    between atoms: C_6  and  C_7 
REMARK    5  A    between atoms: C_8  and  O_28 
REMARK    6  A    between atoms: C_9  and  O_23 
REMARK    7  A    between atoms: C_10  and  O_18 
REMARK    8  A    between atoms: C_11  and  O_13 
REMARK    9  A    between atoms: O_13  and  C_14 
REMARK   10  A    between atoms: C_14  and  C_16 
REMARK   11  A    between atoms: O_18  and  C_19 
REMARK   12  A    between atoms: C_19  and  C_21 
REMARK   13  A    between atoms: O_23  and  C_24 
REMARK   14  A    between atoms: C_24  and  C_26 
REMARK   15  A    between atoms: O_28  and  C_29 
REMARK   16  A    between atoms: C_30  and  O_51 
REMARK   17  A    between atoms: C_31  and  O_46 
REMARK   18  A    between atoms: C_32  and  O_41 
REMARK   19  A    between atoms: C_33  and  C_35 
REMARK   20  A    between atoms: C_35  and  O_36 
REMARK   21  A    between atoms: O_36  and  C_37 
REMARK   22  A    between atoms: C_37  and  C_39 
REMARK   23  A    between atoms: O_41  and  C_42 
REMARK   24  A    between atoms: C_42  and  C_44 
REMARK   25  A    between atoms: O_46  and  C_47 
REMARK   26  A    between atoms: C_47  and  C_49 
REMARK   27  A    between atoms: O_51  and  C_52 
REMARK   28  A    between atoms: C_52  and  C_54 
REMARK   29  A    between atoms: C_57  and  O_59 
REMARK   30  A    between atoms: O_59  and  C_60 
REMARK   31  A    between atoms: C_60  and  C_61 
REMARK   32  A    between atoms: C_62  and  O_79 
REMARK   33  A    between atoms: C_63  and  O_75 
REMARK   34  A    between atoms: C_64  and  O_71 
REMARK   35  A    between atoms: C_65  and  O_67 
REMARK   36  A    between atoms: O_67  and  C_68 
REMARK   37  A    between atoms: O_71  and  C_72 
REMARK   38  A    between atoms: O_75  and  C_76 
REMARK   39  A    between atoms: O_79  and  C_80 
REMARK   40  A    between atoms: C_81  and  O_99 
REMARK   41  A    between atoms: C_82  and  O_95 
REMARK   42  A    between atoms: C_83  and  O_91 
REMARK   43  A    between atoms: C_84  and  C_86 
REMARK   44  A    between atoms: C_86  and  O_87 
REMARK   45  A    between atoms: O_87  and  C_88 
REMARK   46  A    between atoms: O_91  and  C_92 
REMARK   47  A    between atoms: O_95  and  C_96 
REMARK   48  A    between atoms: O_99  and  C_100 
REMARK   49  A    between atoms: C_103  and  C_104 
REMARK   50  A    between atoms: C_103  and  O_125 
REMARK   51  A    between atoms: C_105  and  O_124 
REMARK   52  A    between atoms: C_106  and  O_123 
REMARK   53  A    between atoms: C_107  and  O_122 
REMARK   54  A    between atoms: C_108  and  O_110 
REMARK   55  A    between atoms: O_110  and  C_111 
REMARK   56  A    between atoms: C_112  and  C_120 
REMARK   57  A    between atoms: C_114  and  O_119 
REMARK   58  A    between atoms: C_115  and  O_118 
REMARK   59  A    between atoms: C_116  and  O_117 
REMARK   60  A    between atoms: C_120  and  O_121 
ROOT
HETATM    1  O   UNL     3     -21.601  -4.186 -12.400  1.00  0.00    -0.348 OA
ENDROOT
BRANCH   1   2
HETATM    2  C   UNL     3     -22.051  -3.923 -11.058  1.00  0.00     0.292 C 
HETATM    3  C   UNL     3     -20.813  -3.921 -10.141  1.00  0.00     0.204 C 
HETATM    4  C   UNL     3     -21.174  -3.657  -8.669  1.00  0.00     0.183 C 
HETATM    5  C   UNL     3     -22.272  -4.635  -8.218  1.00  0.00     0.180 C 
HETATM    6  C   UNL     3     -23.451  -4.623  -9.220  1.00  0.00     0.179 C 
HETATM    7  O   UNL     3     -22.986  -4.884 -10.559  1.00  0.00    -0.348 OA
BRANCH   3   8
HETATM    8  O   UNL     3     -20.156  -5.197 -10.231  1.00  0.00    -0.388 OA
HETATM    9  H   UNL     3     -20.746  -5.939  -9.990  1.00  0.00     0.210 HD
ENDBRANCH   3   8
BRANCH   4  10
HETATM   10  O   UNL     3     -20.029  -3.742  -7.821  1.00  0.00    -0.390 OA
HETATM   11  H   UNL     3     -20.183  -4.348  -7.071  1.00  0.00     0.210 HD
ENDBRANCH   4  10
BRANCH   5  12
HETATM   12  O   UNL     3     -22.798  -4.322  -6.932  1.00  0.00    -0.390 OA
HETATM   13  H   UNL     3     -23.617  -3.797  -6.986  1.00  0.00     0.210 HD
ENDBRANCH   5  12
BRANCH   6  14
HETATM   14  C   UNL     3     -24.296  -3.319  -9.099  1.00  0.00     0.198 C 
BRANCH  14  15
HETATM   15  O   UNL     3     -25.517  -3.407  -9.817  1.00  0.00    -0.398 OA
HETATM   16  H   UNL     3     -25.685  -2.560 -10.266  1.00  0.00     0.209 HD
ENDBRANCH  14  15
ENDBRANCH   6  14
ENDBRANCH   1   2
BRANCH   1  17
HETATM   17  C   UNL     3     -22.421  -3.716 -13.476  1.00  0.00     0.187 C 
HETATM   18  C   UNL     3     -23.120  -4.795 -14.319  1.00  0.00     0.180 C 
HETATM   19  O   UNL     3     -24.119  -4.229 -15.212  1.00  0.00    -0.349 OA
HETATM   20  C   UNL     3     -25.146  -3.489 -14.557  1.00  0.00     0.288 C 
HETATM   21  C   UNL     3     -24.528  -2.323 -13.835  1.00  0.00     0.204 C 
HETATM   22  C   UNL     3     -23.454  -2.757 -12.862  1.00  0.00     0.183 C 
BRANCH  18  23
HETATM   23  C   UNL     3     -23.780  -5.970 -13.599  1.00  0.00     0.198 C 
BRANCH  23  24
HETATM   24  O   UNL     3     -24.247  -6.845 -14.634  1.00  0.00    -0.398 OA
HETATM   25  H   UNL     3     -23.682  -7.653 -14.530  1.00  0.00     0.209 HD
ENDBRANCH  23  24
ENDBRANCH  18  23
BRANCH  20  26
HETATM   26  O   UNL     3     -25.936  -2.883 -15.573  1.00  0.00    -0.369 OA
HETATM   27  H   UNL     3     -25.549  -2.011 -15.786  1.00  0.00     0.212 HD
ENDBRANCH  20  26
BRANCH  21  28
HETATM   28  O   UNL     3     -23.945  -1.581 -14.914  1.00  0.00    -0.388 OA
HETATM   29  H   UNL     3     -24.707  -1.161 -15.370  1.00  0.00     0.210 HD
ENDBRANCH  21  28
BRANCH  22  30
HETATM   30  O   UNL     3     -22.779  -1.589 -12.396  1.00  0.00    -0.390 OA
HETATM   31  H   UNL     3     -22.837  -1.590 -11.420  1.00  0.00     0.210 HD
ENDBRANCH  22  30
ENDBRANCH   1  17
TORSDOF 60
BEGIN_RES ARG D 557
REMARK  4 active torsions:
REMARK  status: ('A' for Active; 'I' for Inactive)
REMARK    1  A    between atoms: CA   and  CB  
REMARK    2  A    between atoms: CB   and  CG  
REMARK    3  A    between atoms: CG   and  CD  
REMARK    4  A    between atoms: CD   and  NE  
REMARK       I    between atoms: NE   and  CZ  
REMARK       I    between atoms: CZ   and  NH1 
REMARK       I    between atoms: CZ   and  NH2 
ROOT
ATOM      1  CA  ARG D 557     -26.217   2.705 -17.014  1.00 35.49     0.159 C 
ENDROOT
BRANCH   1   2
ATOM      2  CB  ARG D 557     -26.789   1.319 -17.183  1.00 35.49     0.034 C 
BRANCH   2   3
ATOM      3  CG  ARG D 557     -28.196   1.134 -16.807  1.00 35.49     0.027 C 
BRANCH   3   4
ATOM      4  CD  ARG D 557     -28.453  -0.201 -16.221  1.00 35.49     0.116 C 
BRANCH   4   5
ATOM      5  NE  ARG D 557     -29.443  -0.937 -16.962  1.00 35.49    -0.212 N 
ATOM      6  CZ  ARG D 557     -29.397  -2.220 -17.241  1.00 35.49     0.666 C 
ATOM      7  NH1 ARG D 557     -28.392  -2.991 -16.868  1.00 35.49    -0.235 N 
ATOM      8  NH2 ARG D 557     -30.395  -2.726 -17.906  1.00 35.49    -0.235 N 
ATOM      9  HH  ARG D 557     -27.726  -2.680 -16.428  1.00 35.49     0.174 HD
ATOM     10  HH  ARG D 557     -28.418  -3.822 -17.077  1.00 35.49     0.174 HD
ATOM     11  HH  ARG D 557     -31.033  -2.206 -18.127  1.00 35.49     0.174 HD
ATOM     12  HH  ARG D 557     -30.402  -3.551 -18.102  1.00 35.49     0.174 HD
ATOM     13  HE  ARG D 557     -30.090  -0.503 -17.304  1.00 35.49     0.178 HD
ENDBRANCH   4   5
ENDBRANCH   3   4
ENDBRANCH   2   3
ENDBRANCH   1   2
END_RES ARG D 557
BEGIN_RES GLU D 570
REMARK  3 active torsions:
REMARK  status: ('A' for Active; 'I' for Inactive)
REMARK    5  A    between atoms: CA   and  CB  
REMARK    6  A    between atoms: CB   and  CG  
REMARK    7  A    between atoms: CG   and  CD  
ROOT
ATOM     14  CA  GLU D 570     -18.033  -6.348 -13.375  1.00 32.92     0.160 C 
ENDROOT
BRANCH  14  15
ATOM     15  CB  GLU D 570     -19.500  -6.345 -13.794  1.00 32.92     0.043 C 
BRANCH  15  16
ATOM     16  CG  GLU D 570     -20.031  -7.574 -14.438  1.00 32.92     0.100 C 
BRANCH  16  17
ATOM     17  CD  GLU D 570     -20.836  -7.287 -15.684  1.00 32.92     0.185 C 
ATOM     18  OE1 GLU D 570     -21.783  -8.040 -15.979  1.00 32.92    -0.647 OA
ATOM     19  OE2 GLU D 570     -20.504  -6.307 -16.381  1.00 32.92    -0.647 OA
ENDBRANCH  16  17
ENDBRANCH  15  16
ENDBRANCH  14  15
END_RES GLU D 570
ENDMDL
MODEL 3
REMARK VINA RESULT:      -5.9      4.466      8.679
REMARK WARNING: 32 MAX_TORS EXCEEDED!!!
REMARK  60 active torsions:
REMARK  status: ('A' for Active; 'I' for Inactive)
REMARK    1  A    between atoms: C_2  and  C_3 
REMARK    2  A    between atoms: C_3  and  O_5 
REMARK    3  A    between atoms: O_5  and  C_6 
REMARK    4  A    between atoms: C_6  and  C_7 
REMARK    5  A    between atoms: C_8  and  O_28 
REMARK    6  A    between atoms: C_9  and  O_23 
REMARK    7  A    between atoms: C_10  and  O_18 
REMARK    8  A    between atoms: C_11  and  O_13 
REMARK    9  A    between atoms: O_13  and  C_14 
REMARK   10  A    between atoms: C_14  and  C_16 
REMARK   11  A    between atoms: O_18  and  C_19 
REMARK   12  A    between atoms: C_19  and  C_21 
REMARK   13  A    between atoms: O_23  and  C_24 
REMARK   14  A    between atoms: C_24  and  C_26 
REMARK   15  A    between atoms: O_28  and  C_29 
REMARK   16  A    between atoms: C_30  and  O_51 
REMARK   17  A    between atoms: C_31  and  O_46 
REMARK   18  A    between atoms: C_32  and  O_41 
REMARK   19  A    between atoms: C_33  and  C_35 
REMARK   20  A    between atoms: C_35  and  O_36 
REMARK   21  A    between atoms: O_36  and  C_37 
REMARK   22  A    between atoms: C_37  and  C_39 
REMARK   23  A    between atoms: O_41  and  C_42 
REMARK   24  A    between atoms: C_42  and  C_44 
REMARK   25  A    between atoms: O_46  and  C_47 
REMARK   26  A    between atoms: C_47  and  C_49 
REMARK   27  A    between atoms: O_51  and  C_52 
REMARK   28  A    between atoms: C_52  and  C_54 
REMARK   29  A    between atoms: C_57  and  O_59 
REMARK   30  A    between atoms: O_59  and  C_60 
REMARK   31  A    between atoms: C_60  and  C_61 
REMARK   32  A    between atoms: C_62  and  O_79 
REMARK   33  A    between atoms: C_63  and  O_75 
REMARK   34  A    between atoms: C_64  and  O_71 
REMARK   35  A    between atoms: C_65  and  O_67 
REMARK   36  A    between atoms: O_67  and  C_68 
REMARK   37  A    between atoms: O_71  and  C_72 
REMARK   38  A    between atoms: O_75  and  C_76 
REMARK   39  A    between atoms: O_79  and  C_80 
REMARK   40  A    between atoms: C_81  and  O_99 
REMARK   41  A    between atoms: C_82  and  O_95 
REMARK   42  A    between atoms: C_83  and  O_91 
REMARK   43  A    between atoms: C_84  and  C_86 
REMARK   44  A    between atoms: C_86  and  O_87 
REMARK   45  A    between atoms: O_87  and  C_88 
REMARK   46  A    between atoms: O_91  and  C_92 
REMARK   47  A    between atoms: O_95  and  C_96 
REMARK   48  A    between atoms: O_99  and  C_100 
REMARK   49  A    between atoms: C_103  and  C_104 
REMARK   50  A    between atoms: C_103  and  O_125 
REMARK   51  A    between atoms: C_105  and  O_124 
REMARK   52  A    between atoms: C_106  and  O_123 
REMARK   53  A    between atoms: C_107  and  O_122 
REMARK   54  A    between atoms: C_108  and  O_110 
REMARK   55  A    between atoms: O_110  and  C_111 
REMARK   56  A    between atoms: C_112  and  C_120 
REMARK   57  A    between atoms: C_114  and  O_119 
REMARK   58  A    between atoms: C_115  and  O_118 
REMARK   59  A    between atoms: C_116  and  O_117 
REMARK   60  A    between atoms: C_120  and  O_121 
ROOT
HETATM    1  O   UNL     3     -22.228  -3.123  -9.277  1.00  0.00    -0.348 OA
ENDROOT
BRANCH   1   2
HETATM    2  C   UNL     3     -21.699  -3.929  -8.208  1.00  0.00     0.292 C 
HETATM    3  C   UNL     3     -20.165  -3.791  -8.232  1.00  0.00     0.204 C 
HETATM    4  C   UNL     3     -19.484  -4.623  -7.132  1.00  0.00     0.183 C 
HETATM    5  C   UNL     3     -19.971  -6.080  -7.203  1.00  0.00     0.180 C 
HETATM    6  C   UNL     3     -21.518  -6.131  -7.235  1.00  0.00     0.179 C 
HETATM    7  O   UNL     3     -22.033  -5.317  -8.308  1.00  0.00    -0.348 OA
BRANCH   3   8
HETATM    8  O   UNL     3     -19.670  -4.228  -9.510  1.00  0.00    -0.388 OA
HETATM    9  H   UNL     3     -20.203  -4.956  -9.888  1.00  0.00     0.210 HD
ENDBRANCH   3   8
BRANCH   4  10
HETATM   10  O   UNL     3     -18.061  -4.552  -7.220  1.00  0.00    -0.390 OA
HETATM   11  H   UNL     3     -17.706  -5.226  -7.829  1.00  0.00     0.210 HD
ENDBRANCH   4  10
BRANCH   5  12
HETATM   12  O   UNL     3     -19.539  -6.863  -6.095  1.00  0.00    -0.390 OA
HETATM   13  H   UNL     3     -18.921  -7.570  -6.361  1.00  0.00     0.210 HD
ENDBRANCH   5  12
BRANCH   6  14
HETATM   14  C   UNL     3     -22.134  -5.792  -5.845  1.00  0.00     0.198 C 
BRANCH  14  15
HETATM   15  O   UNL     3     -22.242  -6.939  -5.016  1.00  0.00    -0.398 OA
HETATM   16  H   UNL     3     -21.575  -6.886  -4.309  1.00  0.00     0.209 HD
ENDBRANCH  14  15
ENDBRANCH   6  14
ENDBRANCH   1   2
BRANCH   1  17
HETATM   17  C   UNL     3     -22.475  -3.768 -10.532  1.00  0.00     0.187 C 
HETATM   18  C   UNL     3     -23.917  -4.236 -10.781  1.00  0.00     0.180 C 
HETATM   19  O   UNL     3     -24.129  -4.641 -12.163  1.00  0.00    -0.349 OA
HETATM   20  C   UNL     3     -23.854  -3.626 -13.124  1.00  0.00     0.288 C 
HETATM   21  C   UNL     3     -22.404  -3.234 -13.026  1.00  0.00     0.204 C 
HETATM   22  C   UNL     3     -22.027  -2.789 -11.630  1.00  0.00     0.183 C 
BRANCH  18  23
HETATM   23  C   UNL     3     -25.065  -3.298 -10.411  1.00  0.00     0.198 C 
BRANCH  23  24
HETATM   24  O   UNL     3     -24.914  -3.036  -9.011  1.00  0.00    -0.398 OA
HETATM   25  H   UNL     3     -25.669  -3.527  -8.598  1.00  0.00     0.209 HD
ENDBRANCH  23  24
ENDBRANCH  18  23
BRANCH  20  26
HETATM   26  O   UNL     3     -23.958  -4.228 -14.409  1.00  0.00    -0.369 OA
HETATM   27  H   UNL     3     -23.858  -3.531 -15.087  1.00  0.00     0.212 HD
ENDBRANCH  20  26
BRANCH  21  28
HETATM   28  O   UNL     3     -21.743  -4.464 -13.347  1.00  0.00    -0.388 OA
HETATM   29  H   UNL     3     -21.530  -4.869 -12.478  1.00  0.00     0.210 HD
ENDBRANCH  21  28
BRANCH  22  30
HETATM   30  O   UNL     3     -20.607  -2.655 -11.576  1.00  0.00    -0.390 OA
HETATM   31  H   UNL     3     -20.257  -3.447 -11.122  1.00  0.00     0.210 HD
ENDBRANCH  22  30
ENDBRANCH   1  17
TORSDOF 60
BEGIN_RES ARG D 557
REMARK  4 active torsions:
REMARK  status: ('A' for Active; 'I' for Inactive)
REMARK    1  A    between atoms: CA   and  CB  
REMARK    2  A    between atoms: CB   and  CG  
REMARK    3  A    between atoms: CG   and  CD  
REMARK    4  A    between atoms: CD   and  NE  
REMARK       I    between atoms: NE   and  CZ  
REMARK       I    between atoms: CZ   and  NH1 
REMARK       I    between atoms: CZ   and  NH2 
ROOT
ATOM      1  CA  ARG D 557     -26.217   2.705 -17.014  1.00 35.49     0.159 C 
ENDROOT
BRANCH   1   2
ATOM      2  CB  ARG D 557     -26.789   1.319 -17.183  1.00 35.49     0.034 C 
BRANCH   2   3
ATOM      3  CG  ARG D 557     -28.218   1.154 -16.892  1.00 35.49     0.027 C 
BRANCH   3   4
ATOM      4  CD  ARG D 557     -28.612  -0.269 -16.787  1.00 35.49     0.116 C 
BRANCH   4   5
ATOM      5  NE  ARG D 557     -27.628  -1.054 -16.089  1.00 35.49    -0.212 N 
ATOM      6  CZ  ARG D 557     -27.496  -2.360 -16.159  1.00 35.49     0.666 C 
ATOM      7  NH1 ARG D 557     -28.292  -3.114 -16.894  1.00 35.49    -0.235 N 
ATOM      8  NH2 ARG D 557     -26.533  -2.903 -15.473  1.00 35.49    -0.235 N 
ATOM      9  HH  ARG D 557     -28.931  -2.778 -17.355  1.00 35.49     0.174 HD
ATOM     10  HH  ARG D 557     -28.156  -3.960 -16.903  1.00 35.49     0.174 HD
ATOM     11  HH  ARG D 557     -26.030  -2.390 -15.013  1.00 35.49     0.174 HD
ATOM     12  HH  ARG D 557     -26.414  -3.742 -15.497  1.00 35.49     0.174 HD
ATOM     13  HE  ARG D 557     -27.120  -0.656 -15.535  1.00 35.49     0.178 HD
ENDBRANCH   4   5
ENDBRANCH   3   4
ENDBRANCH   2   3
ENDBRANCH   1   2
END_RES ARG D 557
BEGIN_RES GLU D 570
REMARK  3 active torsions:
REMARK  status: ('A' for Active; 'I' for Inactive)
REMARK    5  A    between atoms: CA   and  CB  
REMARK    6  A    between atoms: CB   and  CG  
REMARK    7  A    between atoms: CG   and  CD  
ROOT
ATOM     14  CA  GLU D 570     -18.033  -6.348 -13.375  1.00 32.92     0.160 C 
ENDROOT
BRANCH  14  15
ATOM     15  CB  GLU D 570     -19.500  -6.345 -13.794  1.00 32.92     0.043 C 
BRANCH  15  16
ATOM     16  CG  GLU D 570     -19.802  -6.567 -15.232  1.00 32.92     0.100 C 
BRANCH  16  17
ATOM     17  CD  GLU D 570     -21.124  -7.264 -15.456  1.00 32.92     0.185 C 
ATOM     18  OE1 GLU D 570     -21.126  -8.432 -15.890  1.00 32.92    -0.647 OA
ATOM     19  OE2 GLU D 570     -22.168  -6.629 -15.209  1.00 32.92    -0.647 OA
ENDBRANCH  16  17
ENDBRANCH  15  16
ENDBRANCH  14  15
END_RES GLU D 570
ENDMDL
MODEL 4
REMARK VINA RESULT:      -5.7      1.658      5.396
REMARK WARNING: 32 MAX_TORS EXCEEDED!!!
REMARK  60 active torsions:
REMARK  status: ('A' for Active; 'I' for Inactive)
REMARK    1  A    between atoms: C_2  and  C_3 
REMARK    2  A    between atoms: C_3  and  O_5 
REMARK    3  A    between atoms: O_5  and  C_6 
REMARK    4  A    between atoms: C_6  and  C_7 
REMARK    5  A    between atoms: C_8  and  O_28 
REMARK    6  A    between atoms: C_9  and  O_23 
REMARK    7  A    between atoms: C_10  and  O_18 
REMARK    8  A    between atoms: C_11  and  O_13 
REMARK    9  A    between atoms: O_13  and  C_14 
REMARK   10  A    between atoms: C_14  and  C_16 
REMARK   11  A    between atoms: O_18  and  C_19 
REMARK   12  A    between atoms: C_19  and  C_21 
REMARK   13  A    between atoms: O_23  and  C_24 
REMARK   14  A    between atoms: C_24  and  C_26 
REMARK   15  A    between atoms: O_28  and  C_29 
REMARK   16  A    between atoms: C_30  and  O_51 
REMARK   17  A    between atoms: C_31  and  O_46 
REMARK   18  A    between atoms: C_32  and  O_41 
REMARK   19  A    between atoms: C_33  and  C_35 
REMARK   20  A    between atoms: C_35  and  O_36 
REMARK   21  A    between atoms: O_36  and  C_37 
REMARK   22  A    between atoms: C_37  and  C_39 
REMARK   23  A    between atoms: O_41  and  C_42 
REMARK   24  A    between atoms: C_42  and  C_44 
REMARK   25  A    between atoms: O_46  and  C_47 
REMARK   26  A    between atoms: C_47  and  C_49 
REMARK   27  A    between atoms: O_51  and  C_52 
REMARK   28  A    between atoms: C_52  and  C_54 
REMARK   29  A    between atoms: C_57  and  O_59 
REMARK   30  A    between atoms: O_59  and  C_60 
REMARK   31  A    between atoms: C_60  and  C_61 
REMARK   32  A    between atoms: C_62  and  O_79 
REMARK   33  A    between atoms: C_63  and  O_75 
REMARK   34  A    between atoms: C_64  and  O_71 
REMARK   35  A    between atoms: C_65  and  O_67 
REMARK   36  A    between atoms: O_67  and  C_68 
REMARK   37  A    between atoms: O_71  and  C_72 
REMARK   38  A    between atoms: O_75  and  C_76 
REMARK   39  A    between atoms: O_79  and  C_80 
REMARK   40  A    between atoms: C_81  and  O_99 
REMARK   41  A    between atoms: C_82  and  O_95 
REMARK   42  A    between atoms: C_83  and  O_91 
REMARK   43  A    between atoms: C_84  and  C_86 
REMARK   44  A    between atoms: C_86  and  O_87 
REMARK   45  A    between atoms: O_87  and  C_88 
REMARK   46  A    between atoms: O_91  and  C_92 
REMARK   47  A    between atoms: O_95  and  C_96 
REMARK   48  A    between atoms: O_99  and  C_100 
REMARK   49  A    between atoms: C_103  and  C_104 
REMARK   50  A    between atoms: C_103  and  O_125 
REMARK   51  A    between atoms: C_105  and  O_124 
REMARK   52  A    between atoms: C_106  and  O_123 
REMARK   53  A    between atoms: C_107  and  O_122 
REMARK   54  A    between atoms: C_108  and  O_110 
REMARK   55  A    between atoms: O_110  and  C_111 
REMARK   56  A    between atoms: C_112  and  C_120 
REMARK   57  A    between atoms: C_114  and  O_119 
REMARK   58  A    between atoms: C_115  and  O_118 
REMARK   59  A    between atoms: C_116  and  O_117 
REMARK   60  A    between atoms: C_120  and  O_121 
ROOT
HETATM    1  O   UNL     3     -26.617  -5.229 -17.157  1.00  0.00    -0.348 OA
ENDROOT
BRANCH   1   2
HETATM    2  C   UNL     3     -28.026  -5.472 -17.318  1.00  0.00     0.292 C 
HETATM    3  C   UNL     3     -28.696  -4.128 -17.663  1.00  0.00     0.204 C 
HETATM    4  C   UNL     3     -30.217  -4.262 -17.850  1.00  0.00     0.183 C 
HETATM    5  C   UNL     3     -30.834  -4.960 -16.626  1.00  0.00     0.180 C 
HETATM    6  C   UNL     3     -30.070  -6.268 -16.309  1.00  0.00     0.179 C 
HETATM    7  O   UNL     3     -28.660  -6.011 -16.154  1.00  0.00    -0.348 OA
BRANCH   3   8
HETATM    8  O   UNL     3     -28.446  -3.189 -16.603  1.00  0.00    -0.388 OA
HETATM    9  H   UNL     3     -28.443  -3.612 -15.721  1.00  0.00     0.210 HD
ENDBRANCH   3   8
BRANCH   4  10
HETATM   10  O   UNL     3     -30.834  -2.996 -18.085  1.00  0.00    -0.390 OA
HETATM   11  H   UNL     3     -30.680  -2.687 -18.997  1.00  0.00     0.210 HD
ENDBRANCH   4  10
BRANCH   5  12
HETATM   12  O   UNL     3     -32.205  -5.298 -16.814  1.00  0.00    -0.390 OA
HETATM   13  H   UNL     3     -32.317  -6.192 -17.187  1.00  0.00     0.210 HD
ENDBRANCH   5  12
BRANCH   6  14
HETATM   14  C   UNL     3     -30.388  -7.386 -17.346  1.00  0.00     0.198 C 
BRANCH  14  15
HETATM   15  O   UNL     3     -29.454  -8.454 -17.281  1.00  0.00    -0.398 OA
HETATM   16  H   UNL     3     -29.759  -9.106 -16.627  1.00  0.00     0.209 HD
ENDBRANCH  14  15
ENDBRANCH   6  14
ENDBRANCH   1   2
BRANCH   1  17
HETATM   17  C   UNL     3     -26.047  -5.475 -15.865  1.00  0.00     0.187 C 
HETATM   18  C   UNL     3     -25.292  -6.804 -15.699  1.00  0.00     0.180 C 
HETATM   19  O   UNL     3     -24.538  -6.852 -14.455  1.00  0.00    -0.349 OA
HETATM   20  C   UNL     3     -23.577  -5.810 -14.306  1.00  0.00     0.288 C 
HETATM   21  C   UNL     3     -24.285  -4.482 -14.310  1.00  0.00     0.204 C 
HETATM   22  C   UNL     3     -25.124  -4.286 -15.554  1.00  0.00     0.183 C 
BRANCH  18  23
HETATM   23  C   UNL     3     -24.344  -7.250 -16.812  1.00  0.00     0.198 C 
BRANCH  23  24
HETATM   24  O   UNL     3     -24.009  -8.610 -16.512  1.00  0.00    -0.398 OA
HETATM   25  H   UNL     3     -23.502  -8.545 -15.662  1.00  0.00     0.209 HD
ENDBRANCH  23  24
ENDBRANCH  18  23
BRANCH  20  26
HETATM   26  O   UNL     3     -23.051  -5.913 -12.989  1.00  0.00    -0.369 OA
HETATM   27  H   UNL     3     -22.955  -6.861 -12.767  1.00  0.00     0.212 HD
ENDBRANCH  20  26
BRANCH  21  28
HETATM   28  O   UNL     3     -25.131  -4.595 -13.158  1.00  0.00    -0.388 OA
HETATM   29  H   UNL     3     -24.750  -5.336 -12.638  1.00  0.00     0.210 HD
ENDBRANCH  21  28
BRANCH  22  30
HETATM   30  O   UNL     3     -25.923  -3.118 -15.370  1.00  0.00    -0.390 OA
HETATM   31  H   UNL     3     -26.752  -3.251 -15.871  1.00  0.00     0.210 HD
ENDBRANCH  22  30
ENDBRANCH   1  17
TORSDOF 60
BEGIN_RES ARG D 557
REMARK  4 active torsions:
REMARK  status: ('A' for Active; 'I' for Inactive)
REMARK    1  A    between atoms: CA   and  CB  
REMARK    2  A    between atoms: CB   and  CG  
REMARK    3  A    between atoms: CG   and  CD  
REMARK    4  A    between atoms: CD   and  NE  
REMARK       I    between atoms: NE   and  CZ  
REMARK       I    between atoms: CZ   and  NH1 
REMARK       I    between atoms: CZ   and  NH2 
ROOT
ATOM      1  CA  ARG D 557     -26.217   2.705 -17.014  1.00 35.49     0.159 C 
ENDROOT
BRANCH   1   2
ATOM      2  CB  ARG D 557     -26.789   1.319 -17.183  1.00 35.49     0.034 C 
BRANCH   2   3
ATOM      3  CG  ARG D 557     -25.879   0.194 -16.936  1.00 35.49     0.027 C 
BRANCH   3   4
ATOM      4  CD  ARG D 557     -24.687   0.594 -16.154  1.00 35.49     0.116 C 
BRANCH   4   5
ATOM      5  NE  ARG D 557     -24.543  -0.183 -14.951  1.00 35.49    -0.212 N 
ATOM      6  CZ  ARG D 557     -23.634  -1.108 -14.738  1.00 35.49     0.666 C 
ATOM      7  NH1 ARG D 557     -22.735  -1.441 -15.646  1.00 35.49    -0.235 N 
ATOM      8  NH2 ARG D 557     -23.637  -1.697 -13.578  1.00 35.49    -0.235 N 
ATOM      9  HH  ARG D 557     -22.713  -1.065 -16.415  1.00 35.49     0.174 HD
ATOM     10  HH  ARG D 557     -22.165  -2.050 -15.450  1.00 35.49     0.174 HD
ATOM     11  HH  ARG D 557     -24.225  -1.456 -13.008  1.00 35.49     0.174 HD
ATOM     12  HH  ARG D 557     -23.064  -2.297 -13.402  1.00 35.49     0.174 HD
ATOM     13  HE  ARG D 557     -25.126  -0.084 -14.340  1.00 35.49     0.178 HD
ENDBRANCH   4   5
ENDBRANCH   3   4
ENDBRANCH   2   3
ENDBRANCH   1   2
END_RES ARG D 557
BEGIN_RES GLU D 570
REMARK  3 active torsions:
REMARK  status: ('A' for Active; 'I' for Inactive)
REMARK    5  A    between atoms: CA   and  CB  
REMARK    6  A    between atoms: CB   and  CG  
REMARK    7  A    between atoms: CG   and  CD  
ROOT
ATOM     14  CA  GLU D 570     -18.033  -6.348 -13.375  1.00 32.92     0.160 C 
ENDROOT
BRANCH  14  15
ATOM     15  CB  GLU D 570     -19.500  -6.345 -13.794  1.00 32.92     0.043 C 
BRANCH  15  16
ATOM     16  CG  GLU D 570     -20.094  -7.640 -14.217  1.00 32.92     0.100 C 
BRANCH  16  17
ATOM     17  CD  GLU D 570     -20.651  -7.602 -15.621  1.00 32.92     0.185 C 
ATOM     18  OE1 GLU D 570     -20.632  -6.527 -16.251  1.00 32.92    -0.647 OA
ATOM     19  OE2 GLU D 570     -21.126  -8.655 -16.090  1.00 32.92    -0.647 OA
ENDBRANCH  16  17
ENDBRANCH  15  16
ENDBRANCH  14  15
END_RES GLU D 570
ENDMDL
MODEL 5
REMARK VINA RESULT:      -5.6      3.304      6.593
REMARK WARNING: 32 MAX_TORS EXCEEDED!!!
REMARK  60 active torsions:
REMARK  status: ('A' for Active; 'I' for Inactive)
REMARK    1  A    between atoms: C_2  and  C_3 
REMARK    2  A    between atoms: C_3  and  O_5 
REMARK    3  A    between atoms: O_5  and  C_6 
REMARK    4  A    between atoms: C_6  and  C_7 
REMARK    5  A    between atoms: C_8  and  O_28 
REMARK    6  A    between atoms: C_9  and  O_23 
REMARK    7  A    between atoms: C_10  and  O_18 
REMARK    8  A    between atoms: C_11  and  O_13 
REMARK    9  A    between atoms: O_13  and  C_14 
REMARK   10  A    between atoms: C_14  and  C_16 
REMARK   11  A    between atoms: O_18  and  C_19 
REMARK   12  A    between atoms: C_19  and  C_21 
REMARK   13  A    between atoms: O_23  and  C_24 
REMARK   14  A    between atoms: C_24  and  C_26 
REMARK   15  A    between atoms: O_28  and  C_29 
REMARK   16  A    between atoms: C_30  and  O_51 
REMARK   17  A    between atoms: C_31  and  O_46 
REMARK   18  A    between atoms: C_32  and  O_41 
REMARK   19  A    between atoms: C_33  and  C_35 
REMARK   20  A    between atoms: C_35  and  O_36 
REMARK   21  A    between atoms: O_36  and  C_37 
REMARK   22  A    between atoms: C_37  and  C_39 
REMARK   23  A    between atoms: O_41  and  C_42 
REMARK   24  A    between atoms: C_42  and  C_44 
REMARK   25  A    between atoms: O_46  and  C_47 
REMARK   26  A    between atoms: C_47  and  C_49 
REMARK   27  A    between atoms: O_51  and  C_52 
REMARK   28  A    between atoms: C_52  and  C_54 
REMARK   29  A    between atoms: C_57  and  O_59 
REMARK   30  A    between atoms: O_59  and  C_60 
REMARK   31  A    between atoms: C_60  and  C_61 
REMARK   32  A    between atoms: C_62  and  O_79 
REMARK   33  A    between atoms: C_63  and  O_75 
REMARK   34  A    between atoms: C_64  and  O_71 
REMARK   35  A    between atoms: C_65  and  O_67 
REMARK   36  A    between atoms: O_67  and  C_68 
REMARK   37  A    between atoms: O_71  and  C_72 
REMARK   38  A    between atoms: O_75  and  C_76 
REMARK   39  A    between atoms: O_79  and  C_80 
REMARK   40  A    between atoms: C_81  and  O_99 
REMARK   41  A    between atoms: C_82  and  O_95 
REMARK   42  A    between atoms: C_83  and  O_91 
REMARK   43  A    between atoms: C_84  and  C_86 
REMARK   44  A    between atoms: C_86  and  O_87 
REMARK   45  A    between atoms: O_87  and  C_88 
REMARK   46  A    between atoms: O_91  and  C_92 
REMARK   47  A    between atoms: O_95  and  C_96 
REMARK   48  A    between atoms: O_99  and  C_100 
REMARK   49  A    between atoms: C_103  and  C_104 
REMARK   50  A    between atoms: C_103  and  O_125 
REMARK   51  A    between atoms: C_105  and  O_124 
REMARK   52  A    between atoms: C_106  and  O_123 
REMARK   53  A    between atoms: C_107  and  O_122 
REMARK   54  A    between atoms: C_108  and  O_110 
REMARK   55  A    between atoms: O_110  and  C_111 
REMARK   56  A    between atoms: C_112  and  C_120 
REMARK   57  A    between atoms: C_114  and  O_119 
REMARK   58  A    between atoms: C_115  and  O_118 
REMARK   59  A    between atoms: C_116  and  O_117 
REMARK   60  A    between atoms: C_120  and  O_121 
ROOT
HETATM    1  O   UNL     3     -23.638  -3.510 -13.351  1.00  0.00    -0.348 OA
ENDROOT
BRANCH   1   2
HETATM    2  C   UNL     3     -23.465  -3.486 -11.923  1.00  0.00     0.292 C 
HETATM    3  C   UNL     3     -21.955  -3.568 -11.632  1.00  0.00     0.204 C 
HETATM    4  C   UNL     3     -21.646  -3.560 -10.125  1.00  0.00     0.183 C 
HETATM    5  C   UNL     3     -22.468  -4.651  -9.419  1.00  0.00     0.180 C 
HETATM    6  C   UNL     3     -23.962  -4.539  -9.807  1.00  0.00     0.179 C 
HETATM    7  O   UNL     3     -24.119  -4.561 -11.240  1.00  0.00    -0.348 OA
BRANCH   3   8
HETATM    8  O   UNL     3     -21.428  -4.780 -12.202  1.00  0.00    -0.388 OA
HETATM    9  H   UNL     3     -21.210  -5.449 -11.522  1.00  0.00     0.210 HD
ENDBRANCH   3   8
BRANCH   4  10
HETATM   10  O   UNL     3     -20.251  -3.722  -9.871  1.00  0.00    -0.390 OA
HETATM   11  H   UNL     3     -20.078  -3.914  -8.930  1.00  0.00     0.210 HD
ENDBRANCH   4  10
BRANCH   5  12
HETATM   12  O   UNL     3     -22.386  -4.574  -7.998  1.00  0.00    -0.390 OA
HETATM   13  H   UNL     3     -23.266  -4.521  -7.581  1.00  0.00     0.210 HD
ENDBRANCH   5  12
BRANCH   6  14
HETATM   14  C   UNL     3     -24.643  -3.315  -9.125  1.00  0.00     0.198 C 
BRANCH  14  15
HETATM   15  O   UNL     3     -25.980  -3.135  -9.568  1.00  0.00    -0.398 OA
HETATM   16  H   UNL     3     -26.005  -2.415 -10.222  1.00  0.00     0.209 HD
ENDBRANCH  14  15
ENDBRANCH   6  14
ENDBRANCH   1   2
BRANCH   1  17
HETATM   17  C   UNL     3     -24.650  -4.376 -13.881  1.00  0.00     0.187 C 
HETATM   18  C   UNL     3     -25.932  -3.693 -14.384  1.00  0.00     0.180 C 
HETATM   19  O   UNL     3     -26.782  -4.609 -15.129  1.00  0.00    -0.349 OA
HETATM   20  C   UNL     3     -26.158  -5.202 -16.264  1.00  0.00     0.288 C 
HETATM   21  C   UNL     3     -24.976  -6.014 -15.809  1.00  0.00     0.204 C 
HETATM   22  C   UNL     3     -23.993  -5.190 -15.007  1.00  0.00     0.183 C 
BRANCH  18  23
HETATM   23  C   UNL     3     -25.802  -2.423 -15.223  1.00  0.00     0.198 C 
BRANCH  23  24
HETATM   24  O   UNL     3     -25.296  -1.421 -14.333  1.00  0.00    -0.398 OA
HETATM   25  H   UNL     3     -25.895  -1.484 -13.545  1.00  0.00     0.209 HD
ENDBRANCH  23  24
ENDBRANCH  18  23
BRANCH  20  26
HETATM   26  O   UNL     3     -27.062  -6.174 -16.777  1.00  0.00    -0.369 OA
HETATM   27  H   UNL     3     -26.953  -7.000 -16.264  1.00  0.00     0.212 HD
ENDBRANCH  20  26
BRANCH  21  28
HETATM   28  O   UNL     3     -25.596  -6.996 -14.970  1.00  0.00    -0.388 OA
HETATM   29  H   UNL     3     -25.337  -6.745 -14.056  1.00  0.00     0.210 HD
ENDBRANCH  21  28
BRANCH  22  30
HETATM   30  O   UNL     3     -23.032  -6.077 -14.435  1.00  0.00    -0.390 OA
HETATM   31  H   UNL     3     -23.507  -6.647 -13.798  1.00  0.00     0.210 HD
ENDBRANCH  22  30
ENDBRANCH   1  17
TORSDOF 60
BEGIN_RES ARG D 557
REMARK  4 active torsions:
REMARK  status: ('A' for Active; 'I' for Inactive)
REMARK    1  A    between atoms: CA   and  CB  
REMARK    2  A    between atoms: CB   and  CG  
REMARK    3  A    between atoms: CG   and  CD  
REMARK    4  A    between atoms: CD   and  NE  
REMARK       I    between atoms: NE   and  CZ  
REMARK       I    between atoms: CZ   and  NH1 
REMARK       I    between atoms: CZ   and  NH2 
ROOT
ATOM      1  CA  ARG D 557     -26.217   2.705 -17.014  1.00 35.49     0.159 C 
ENDROOT
BRANCH   1   2
ATOM      2  CB  ARG D 557     -26.789   1.319 -17.183  1.00 35.49     0.034 C 
BRANCH   2   3
ATOM      3  CG  ARG D 557     -28.115   1.076 -16.601  1.00 35.49     0.027 C 
BRANCH   3   4
ATOM      4  CD  ARG D 557     -28.903   0.096 -17.383  1.00 35.49     0.116 C 
BRANCH   4   5
ATOM      5  NE  ARG D 557     -28.428  -1.250 -17.202  1.00 35.49    -0.212 N 
ATOM      6  CZ  ARG D 557     -29.159  -2.340 -17.280  1.00 35.49     0.666 C 
ATOM      7  NH1 ARG D 557     -30.455  -2.307 -17.529  1.00 35.49    -0.235 N 
ATOM      8  NH2 ARG D 557     -28.557  -3.480 -17.109  1.00 35.49    -0.235 N 
ATOM      9  HH  ARG D 557     -30.872  -1.568 -17.647  1.00 35.49     0.174 HD
ATOM     10  HH  ARG D 557     -30.880  -3.050 -17.571  1.00 35.49     0.174 HD
ATOM     11  HH  ARG D 557     -27.718  -3.471 -16.957  1.00 35.49     0.174 HD
ATOM     12  HH  ARG D 557     -28.995  -4.205 -17.156  1.00 35.49     0.174 HD
ATOM     13  HE  ARG D 557     -27.618  -1.360 -16.966  1.00 35.49     0.178 HD
ENDBRANCH   4   5
ENDBRANCH   3   4
ENDBRANCH   2   3
ENDBRANCH   1   2
END_RES ARG D 557
BEGIN_RES GLU D 570
REMARK  3 active torsions:
REMARK  status: ('A' for Active; 'I' for Inactive)
REMARK    5  A    between atoms: CA   and  CB  
REMARK    6  A    between atoms: CB   and  CG  
REMARK    7  A    between atoms: CG   and  CD  
ROOT
ATOM     14  CA  GLU D 570     -18.033  -6.348 -13.375  1.00 32.92     0.160 C 
ENDROOT
BRANCH  14  15
ATOM     15  CB  GLU D 570     -19.500  -6.345 -13.794  1.00 32.92     0.043 C 
BRANCH  15  16
ATOM     16  CG  GLU D 570     -20.088  -7.635 -14.238  1.00 32.92     0.100 C 
BRANCH  16  17
ATOM     17  CD  GLU D 570     -20.540  -7.612 -15.679  1.00 32.92     0.185 C 
ATOM     18  OE1 GLU D 570     -20.645  -6.516 -16.263  1.00 32.92    -0.647 OA
ATOM     19  OE2 GLU D 570     -20.809  -8.700 -16.225  1.00 32.92    -0.647 OA
ENDBRANCH  16  17
ENDBRANCH  15  16
ENDBRANCH  14  15
END_RES GLU D 570
ENDMDL
MODEL 6
REMARK VINA RESULT:      -5.5      1.408      5.399
REMARK WARNING: 32 MAX_TORS EXCEEDED!!!
REMARK  60 active torsions:
REMARK  status: ('A' for Active; 'I' for Inactive)
REMARK    1  A    between atoms: C_2  and  C_3 
REMARK    2  A    between atoms: C_3  and  O_5 
REMARK    3  A    between atoms: O_5  and  C_6 
REMARK    4  A    between atoms: C_6  and  C_7 
REMARK    5  A    between atoms: C_8  and  O_28 
REMARK    6  A    between atoms: C_9  and  O_23 
REMARK    7  A    between atoms: C_10  and  O_18 
REMARK    8  A    between atoms: C_11  and  O_13 
REMARK    9  A    between atoms: O_13  and  C_14 
REMARK   10  A    between atoms: C_14  and  C_16 
REMARK   11  A    between atoms: O_18  and  C_19 
REMARK   12  A    between atoms: C_19  and  C_21 
REMARK   13  A    between atoms: O_23  and  C_24 
REMARK   14  A    between atoms: C_24  and  C_26 
REMARK   15  A    between atoms: O_28  and  C_29 
REMARK   16  A    between atoms: C_30  and  O_51 
REMARK   17  A    between atoms: C_31  and  O_46 
REMARK   18  A    between atoms: C_32  and  O_41 
REMARK   19  A    between atoms: C_33  and  C_35 
REMARK   20  A    between atoms: C_35  and  O_36 
REMARK   21  A    between atoms: O_36  and  C_37 
REMARK   22  A    between atoms: C_37  and  C_39 
REMARK   23  A    between atoms: O_41  and  C_42 
REMARK   24  A    between atoms: C_42  and  C_44 
REMARK   25  A    between atoms: O_46  and  C_47 
REMARK   26  A    between atoms: C_47  and  C_49 
REMARK   27  A    between atoms: O_51  and  C_52 
REMARK   28  A    between atoms: C_52  and  C_54 
REMARK   29  A    between atoms: C_57  and  O_59 
REMARK   30  A    between atoms: O_59  and  C_60 
REMARK   31  A    between atoms: C_60  and  C_61 
REMARK   32  A    between atoms: C_62  and  O_79 
REMARK   33  A    between atoms: C_63  and  O_75 
REMARK   34  A    between atoms: C_64  and  O_71 
REMARK   35  A    between atoms: C_65  and  O_67 
REMARK   36  A    between atoms: O_67  and  C_68 
REMARK   37  A    between atoms: O_71  and  C_72 
REMARK   38  A    between atoms: O_75  and  C_76 
REMARK   39  A    between atoms: O_79  and  C_80 
REMARK   40  A    between atoms: C_81  and  O_99 
REMARK   41  A    between atoms: C_82  and  O_95 
REMARK   42  A    between atoms: C_83  and  O_91 
REMARK   43  A    between atoms: C_84  and  C_86 
REMARK   44  A    between atoms: C_86  and  O_87 
REMARK   45  A    between atoms: O_87  and  C_88 
REMARK   46  A    between atoms: O_91  and  C_92 
REMARK   47  A    between atoms: O_95  and  C_96 
REMARK   48  A    between atoms: O_99  and  C_100 
REMARK   49  A    between atoms: C_103  and  C_104 
REMARK   50  A    between atoms: C_103  and  O_125 
REMARK   51  A    between atoms: C_105  and  O_124 
REMARK   52  A    between atoms: C_106  and  O_123 
REMARK   53  A    between atoms: C_107  and  O_122 
REMARK   54  A    between atoms: C_108  and  O_110 
REMARK   55  A    between atoms: O_110  and  C_111 
REMARK   56  A    between atoms: C_112  and  C_120 
REMARK   57  A    between atoms: C_114  and  O_119 
REMARK   58  A    between atoms: C_115  and  O_118 
REMARK   59  A    between atoms: C_116  and  O_117 
REMARK   60  A    between atoms: C_120  and  O_121 
ROOT
HETATM    1  O   UNL     3     -27.169  -5.496 -18.379  1.00  0.00    -0.348 OA
ENDROOT
BRANCH   1   2
HETATM    2  C   UNL     3     -28.594  -5.679 -18.303  1.00  0.00     0.292 C 
HETATM    3  C   UNL     3     -29.229  -4.302 -18.029  1.00  0.00     0.204 C 
HETATM    4  C   UNL     3     -30.762  -4.375 -17.917  1.00  0.00     0.183 C 
HETATM    5  C   UNL     3     -31.159  -5.449 -16.891  1.00  0.00     0.180 C 
HETATM    6  C   UNL     3     -30.436  -6.783 -17.198  1.00  0.00     0.179 C 
HETATM    7  O   UNL     3     -29.010  -6.584 -17.275  1.00  0.00    -0.348 OA
BRANCH   3   8
HETATM    8  O   UNL     3     -28.703  -3.775 -16.799  1.00  0.00    -0.388 OA
HETATM    9  H   UNL     3     -27.967  -3.147 -16.945  1.00  0.00     0.210 HD
ENDBRANCH   3   8
BRANCH   4  10
HETATM   10  O   UNL     3     -31.327  -3.108 -17.580  1.00  0.00    -0.390 OA
HETATM   11  H   UNL     3     -31.804  -2.716 -18.336  1.00  0.00     0.210 HD
ENDBRANCH   4  10
BRANCH   5  12
HETATM   12  O   UNL     3     -32.559  -5.713 -16.880  1.00  0.00    -0.390 OA
HETATM   13  H   UNL     3     -33.089  -4.894 -16.897  1.00  0.00     0.210 HD
ENDBRANCH   5  12
BRANCH   6  14
HETATM   14  C   UNL     3     -31.034  -7.486 -18.453  1.00  0.00     0.198 C 
BRANCH  14  15
HETATM   15  O   UNL     3     -30.208  -8.544 -18.915  1.00  0.00    -0.398 OA
HETATM   16  H   UNL     3     -30.768  -9.277 -19.223  1.00  0.00     0.209 HD
ENDBRANCH  14  15
ENDBRANCH   6  14
ENDBRANCH   1   2
BRANCH   1  17
HETATM   17  C   UNL     3     -26.346  -6.388 -17.616  1.00  0.00     0.187 C 
HETATM   18  C   UNL     3     -25.275  -7.161 -18.402  1.00  0.00     0.180 C 
HETATM   19  O   UNL     3     -24.333  -7.836 -17.522  1.00  0.00    -0.349 OA
HETATM   20  C   UNL     3     -23.642  -6.973 -16.623  1.00  0.00     0.288 C 
HETATM   21  C   UNL     3     -24.640  -6.299 -15.721  1.00  0.00     0.204 C 
HETATM   22  C   UNL     3     -25.700  -5.551 -16.501  1.00  0.00     0.183 C 
BRANCH  18  23
HETATM   23  C   UNL     3     -24.450  -6.410 -19.446  1.00  0.00     0.198 C 
BRANCH  23  24
HETATM   24  O   UNL     3     -25.250  -6.395 -20.634  1.00  0.00    -0.398 OA
HETATM   25  H   UNL     3     -26.108  -6.799 -20.343  1.00  0.00     0.209 HD
ENDBRANCH  23  24
ENDBRANCH  18  23
BRANCH  20  26
HETATM   26  O   UNL     3     -22.891  -7.801 -15.743  1.00  0.00    -0.369 OA
HETATM   27  H   UNL     3     -22.115  -8.144 -16.228  1.00  0.00     0.212 HD
ENDBRANCH  20  26
BRANCH  21  28
HETATM   28  O   UNL     3     -25.226  -7.416 -15.041  1.00  0.00    -0.388 OA
HETATM   29  H   UNL     3     -24.715  -7.497 -14.205  1.00  0.00     0.210 HD
ENDBRANCH  21  28
BRANCH  22  30
HETATM   30  O   UNL     3     -26.715  -5.138 -15.586  1.00  0.00    -0.390 OA
HETATM   31  H   UNL     3     -27.005  -4.245 -15.858  1.00  0.00     0.210 HD
ENDBRANCH  22  30
ENDBRANCH   1  17
TORSDOF 60
BEGIN_RES ARG D 557
REMARK  4 active torsions:
REMARK  status: ('A' for Active; 'I' for Inactive)
REMARK    1  A    between atoms: CA   and  CB  
REMARK    2  A    between atoms: CB   and  CG  
REMARK    3  A    between atoms: CG   and  CD  
REMARK    4  A    between atoms: CD   and  NE  
REMARK       I    between atoms: NE   and  CZ  
REMARK       I    between atoms: CZ   and  NH1 
REMARK       I    between atoms: CZ   and  NH2 
ROOT
ATOM      1  CA  ARG D 557     -26.217   2.705 -17.014  1.00 35.49     0.159 C 
ENDROOT
BRANCH   1   2
ATOM      2  CB  ARG D 557     -26.789   1.319 -17.183  1.00 35.49     0.034 C 
BRANCH   2   3
ATOM      3  CG  ARG D 557     -26.090   0.227 -16.495  1.00 35.49     0.027 C 
BRANCH   3   4
ATOM      4  CD  ARG D 557     -26.994  -0.894 -16.150  1.00 35.49     0.116 C 
BRANCH   4   5
ATOM      5  NE  ARG D 557     -26.292  -1.986 -15.529  1.00 35.49    -0.212 N 
ATOM      6  CZ  ARG D 557     -25.211  -1.882 -14.788  1.00 35.49     0.666 C 
ATOM      7  NH1 ARG D 557     -24.630  -0.723 -14.541  1.00 35.49    -0.235 N 
ATOM      8  NH2 ARG D 557     -24.720  -2.977 -14.286  1.00 35.49    -0.235 N 
ATOM      9  HH  ARG D 557     -24.937   0.011 -14.859  1.00 35.49     0.174 HD
ATOM     10  HH  ARG D 557     -23.929  -0.716 -14.048  1.00 35.49     0.174 HD
ATOM     11  HH  ARG D 557     -25.121  -3.711 -14.457  1.00 35.49     0.174 HD
ATOM     12  HH  ARG D 557     -24.026  -2.950 -13.800  1.00 35.49     0.174 HD
ATOM     13  HE  ARG D 557     -26.556  -2.777 -15.696  1.00 35.49     0.178 HD
ENDBRANCH   4   5
ENDBRANCH   3   4
ENDBRANCH   2   3
ENDBRANCH   1   2
END_RES ARG D 557
BEGIN_RES GLU D 570
REMARK  3 active torsions:
REMARK  status: ('A' for Active; 'I' for Inactive)
REMARK    5  A    between atoms: CA   and  CB  
REMARK    6  A    between atoms: CB   and  CG  
REMARK    7  A    between atoms: CG   and  CD  
ROOT
ATOM     14  CA  GLU D 570     -18.033  -6.348 -13.375  1.00 32.92     0.160 C 
ENDROOT
BRANCH  14  15
ATOM     15  CB  GLU D 570     -19.500  -6.345 -13.794  1.00 32.92     0.043 C 
BRANCH  15  16
ATOM     16  CG  GLU D 570     -20.452  -5.582 -12.947  1.00 32.92     0.100 C 
BRANCH  16  17
ATOM     17  CD  GLU D 570     -21.676  -5.120 -13.704  1.00 32.92     0.185 C 
ATOM     18  OE1 GLU D 570     -21.597  -4.951 -14.936  1.00 32.92    -0.647 OA
ATOM     19  OE2 GLU D 570     -22.719  -4.909 -13.056  1.00 32.92    -0.647 OA
ENDBRANCH  16  17
ENDBRANCH  15  16
ENDBRANCH  14  15
END_RES GLU D 570
ENDMDL
MODEL 7
REMARK VINA RESULT:      -5.3      2.440      5.666
REMARK WARNING: 32 MAX_TORS EXCEEDED!!!
REMARK  60 active torsions:
REMARK  status: ('A' for Active; 'I' for Inactive)
REMARK    1  A    between atoms: C_2  and  C_3 
REMARK    2  A    between atoms: C_3  and  O_5 
REMARK    3  A    between atoms: O_5  and  C_6 
REMARK    4  A    between atoms: C_6  and  C_7 
REMARK    5  A    between atoms: C_8  and  O_28 
REMARK    6  A    between atoms: C_9  and  O_23 
REMARK    7  A    between atoms: C_10  and  O_18 
REMARK    8  A    between atoms: C_11  and  O_13 
REMARK    9  A    between atoms: O_13  and  C_14 
REMARK   10  A    between atoms: C_14  and  C_16 
REMARK   11  A    between atoms: O_18  and  C_19 
REMARK   12  A    between atoms: C_19  and  C_21 
REMARK   13  A    between atoms: O_23  and  C_24 
REMARK   14  A    between atoms: C_24  and  C_26 
REMARK   15  A    between atoms: O_28  and  C_29 
REMARK   16  A    between atoms: C_30  and  O_51 
REMARK   17  A    between atoms: C_31  and  O_46 
REMARK   18  A    between atoms: C_32  and  O_41 
REMARK   19  A    between atoms: C_33  and  C_35 
REMARK   20  A    between atoms: C_35  and  O_36 
REMARK   21  A    between atoms: O_36  and  C_37 
REMARK   22  A    between atoms: C_37  and  C_39 
REMARK   23  A    between atoms: O_41  and  C_42 
REMARK   24  A    between atoms: C_42  and  C_44 
REMARK   25  A    between atoms: O_46  and  C_47 
REMARK   26  A    between atoms: C_47  and  C_49 
REMARK   27  A    between atoms: O_51  and  C_52 
REMARK   28  A    between atoms: C_52  and  C_54 
REMARK   29  A    between atoms: C_57  and  O_59 
REMARK   30  A    between atoms: O_59  and  C_60 
REMARK   31  A    between atoms: C_60  and  C_61 
REMARK   32  A    between atoms: C_62  and  O_79 
REMARK   33  A    between atoms: C_63  and  O_75 
REMARK   34  A    between atoms: C_64  and  O_71 
REMARK   35  A    between atoms: C_65  and  O_67 
REMARK   36  A    between atoms: O_67  and  C_68 
REMARK   37  A    between atoms: O_71  and  C_72 
REMARK   38  A    between atoms: O_75  and  C_76 
REMARK   39  A    between atoms: O_79  and  C_80 
REMARK   40  A    between atoms: C_81  and  O_99 
REMARK   41  A    between atoms: C_82  and  O_95 
REMARK   42  A    between atoms: C_83  and  O_91 
REMARK   43  A    between atoms: C_84  and  C_86 
REMARK   44  A    between atoms: C_86  and  O_87 
REMARK   45  A    between atoms: O_87  and  C_88 
REMARK   46  A    between atoms: O_91  and  C_92 
REMARK   47  A    between atoms: O_95  and  C_96 
REMARK   48  A    between atoms: O_99  and  C_100 
REMARK   49  A    between atoms: C_103  and  C_104 
REMARK   50  A    between atoms: C_103  and  O_125 
REMARK   51  A    between atoms: C_105  and  O_124 
REMARK   52  A    between atoms: C_106  and  O_123 
REMARK   53  A    between atoms: C_107  and  O_122 
REMARK   54  A    between atoms: C_108  and  O_110 
REMARK   55  A    between atoms: O_110  and  C_111 
REMARK   56  A    between atoms: C_112  and  C_120 
REMARK   57  A    between atoms: C_114  and  O_119 
REMARK   58  A    between atoms: C_115  and  O_118 
REMARK   59  A    between atoms: C_116  and  O_117 
REMARK   60  A    between atoms: C_120  and  O_121 
ROOT
HETATM    1  O   UNL     3     -23.952  -4.102 -14.157  1.00  0.00    -0.348 OA
ENDROOT
BRANCH   1   2
HETATM    2  C   UNL     3     -23.303  -4.309 -12.890  1.00  0.00     0.292 C 
HETATM    3  C   UNL     3     -24.389  -4.280 -11.797  1.00  0.00     0.204 C 
HETATM    4  C   UNL     3     -23.807  -4.483 -10.387  1.00  0.00     0.183 C 
HETATM    5  C   UNL     3     -22.665  -3.482 -10.145  1.00  0.00     0.180 C 
HETATM    6  C   UNL     3     -21.649  -3.530 -11.312  1.00  0.00     0.179 C 
HETATM    7  O   UNL     3     -22.314  -3.324 -12.575  1.00  0.00    -0.348 OA
BRANCH   3   8
HETATM    8  O   UNL     3     -25.065  -3.011 -11.836  1.00  0.00    -0.388 OA
HETATM    9  H   UNL     3     -26.026  -3.094 -11.676  1.00  0.00     0.210 HD
ENDBRANCH   3   8
BRANCH   4  10
HETATM   10  O   UNL     3     -24.813  -4.368  -9.380  1.00  0.00    -0.390 OA
HETATM   11  H   UNL     3     -24.936  -3.442  -9.100  1.00  0.00     0.210 HD
ENDBRANCH   4  10
BRANCH   5  12
HETATM   12  O   UNL     3     -21.948  -3.741  -8.941  1.00  0.00    -0.390 OA
HETATM   13  H   UNL     3     -21.158  -3.175  -8.853  1.00  0.00     0.210 HD
ENDBRANCH   5  12
BRANCH   6  14
HETATM   14  C   UNL     3     -20.783  -4.823 -11.269  1.00  0.00     0.198 C 
BRANCH  14  15
HETATM   15  O   UNL     3     -19.810  -4.779 -10.235  1.00  0.00    -0.398 OA
HETATM   16  H   UNL     3     -19.104  -4.159 -10.488  1.00  0.00     0.209 HD
ENDBRANCH  14  15
ENDBRANCH   6  14
ENDBRANCH   1   2
BRANCH   1  17
HETATM   17  C   UNL     3     -25.015  -4.995 -14.510  1.00  0.00     0.187 C 
HETATM   18  C   UNL     3     -26.388  -4.351 -14.756  1.00  0.00     0.180 C 
HETATM   19  O   UNL     3     -27.331  -5.286 -15.352  1.00  0.00    -0.349 OA
HETATM   20  C   UNL     3     -26.907  -5.841 -16.595  1.00  0.00     0.288 C 
HETATM   21  C   UNL     3     -25.635  -6.616 -16.380  1.00  0.00     0.204 C 
HETATM   22  C   UNL     3     -24.549  -5.769 -15.755  1.00  0.00     0.183 C 
BRANCH  18  23
HETATM   23  C   UNL     3     -26.456  -3.066 -15.579  1.00  0.00     0.198 C 
BRANCH  23  24
HETATM   24  O   UNL     3     -26.403  -1.995 -14.629  1.00  0.00    -0.398 OA
HETATM   25  H   UNL     3     -26.188  -1.201 -15.182  1.00  0.00     0.209 HD
ENDBRANCH  23  24
ENDBRANCH  18  23
BRANCH  20  26
HETATM   26  O   UNL     3     -27.858  -6.837 -16.952  1.00  0.00    -0.369 OA
HETATM   27  H   UNL     3     -28.528  -6.429 -17.537  1.00  0.00     0.212 HD
ENDBRANCH  20  26
BRANCH  21  28
HETATM   28  O   UNL     3     -26.059  -7.631 -15.461  1.00  0.00    -0.388 OA
HETATM   29  H   UNL     3     -25.681  -7.361 -14.596  1.00  0.00     0.210 HD
ENDBRANCH  21  28
BRANCH  22  30
HETATM   30  O   UNL     3     -23.472  -6.630 -15.386  1.00  0.00    -0.390 OA
HETATM   31  H   UNL     3     -23.865  -7.446 -15.019  1.00  0.00     0.210 HD
ENDBRANCH  22  30
ENDBRANCH   1  17
TORSDOF 60
BEGIN_RES ARG D 557
REMARK  4 active torsions:
REMARK  status: ('A' for Active; 'I' for Inactive)
REMARK    1  A    between atoms: CA   and  CB  
REMARK    2  A    between atoms: CB   and  CG  
REMARK    3  A    between atoms: CG   and  CD  
REMARK    4  A    between atoms: CD   and  NE  
REMARK       I    between atoms: NE   and  CZ  
REMARK       I    between atoms: CZ   and  NH1 
REMARK       I    between atoms: CZ   and  NH2 
ROOT
ATOM      1  CA  ARG D 557     -26.217   2.705 -17.014  1.00 35.49     0.159 C 
ENDROOT
BRANCH   1   2
ATOM      2  CB  ARG D 557     -26.789   1.319 -17.183  1.00 35.49     0.034 C 
BRANCH   2   3
ATOM      3  CG  ARG D 557     -25.827   0.222 -17.345  1.00 35.49     0.027 C 
BRANCH   3   4
ATOM      4  CD  ARG D 557     -24.519   0.522 -16.719  1.00 35.49     0.116 C 
BRANCH   4   5
ATOM      5  NE  ARG D 557     -24.434   0.017 -15.374  1.00 35.49    -0.212 N 
ATOM      6  CZ  ARG D 557     -23.600  -0.908 -14.952  1.00 35.49     0.666 C 
ATOM      7  NH1 ARG D 557     -22.734  -1.500 -15.752  1.00 35.49    -0.235 N 
ATOM      8  NH2 ARG D 557     -23.648  -1.228 -13.691  1.00 35.49    -0.235 N 
ATOM      9  HH  ARG D 557     -22.684  -1.303 -16.585  1.00 35.49     0.174 HD
ATOM     10  HH  ARG D 557     -22.213  -2.094 -15.420  1.00 35.49     0.174 HD
ATOM     11  HH  ARG D 557     -24.212  -0.824 -13.196  1.00 35.49     0.174 HD
ATOM     12  HH  ARG D 557     -23.123  -1.818 -13.381  1.00 35.49     0.174 HD
ATOM     13  HE  ARG D 557     -25.005   0.292 -14.807  1.00 35.49     0.178 HD
ENDBRANCH   4   5
ENDBRANCH   3   4
ENDBRANCH   2   3
ENDBRANCH   1   2
END_RES ARG D 557
BEGIN_RES GLU D 570
REMARK  3 active torsions:
REMARK  status: ('A' for Active; 'I' for Inactive)
REMARK    5  A    between atoms: CA   and  CB  
REMARK    6  A    between atoms: CB   and  CG  
REMARK    7  A    between atoms: CG   and  CD  
ROOT
ATOM     14  CA  GLU D 570     -18.033  -6.348 -13.375  1.00 32.92     0.160 C 
ENDROOT
BRANCH  14  15
ATOM     15  CB  GLU D 570     -19.500  -6.345 -13.794  1.00 32.92     0.043 C 
BRANCH  15  16
ATOM     16  CG  GLU D 570     -19.798  -6.206 -15.243  1.00 32.92     0.100 C 
BRANCH  16  17
ATOM     17  CD  GLU D 570     -20.547  -7.390 -15.807  1.00 32.92     0.185 C 
ATOM     18  OE1 GLU D 570     -20.489  -8.483 -15.211  1.00 32.92    -0.647 OA
ATOM     19  OE2 GLU D 570     -21.185  -7.228 -16.866  1.00 32.92    -0.647 OA
ENDBRANCH  16  17
ENDBRANCH  15  16
ENDBRANCH  14  15
END_RES GLU D 570
ENDMDL
MODEL 8
REMARK VINA RESULT:      -5.3      4.794      8.946
REMARK WARNING: 32 MAX_TORS EXCEEDED!!!
REMARK  60 active torsions:
REMARK  status: ('A' for Active; 'I' for Inactive)
REMARK    1  A    between atoms: C_2  and  C_3 
REMARK    2  A    between atoms: C_3  and  O_5 
REMARK    3  A    between atoms: O_5  and  C_6 
REMARK    4  A    between atoms: C_6  and  C_7 
REMARK    5  A    between atoms: C_8  and  O_28 
REMARK    6  A    between atoms: C_9  and  O_23 
REMARK    7  A    between atoms: C_10  and  O_18 
REMARK    8  A    between atoms: C_11  and  O_13 
REMARK    9  A    between atoms: O_13  and  C_14 
REMARK   10  A    between atoms: C_14  and  C_16 
REMARK   11  A    between atoms: O_18  and  C_19 
REMARK   12  A    between atoms: C_19  and  C_21 
REMARK   13  A    between atoms: O_23  and  C_24 
REMARK   14  A    between atoms: C_24  and  C_26 
REMARK   15  A    between atoms: O_28  and  C_29 
REMARK   16  A    between atoms: C_30  and  O_51 
REMARK   17  A    between atoms: C_31  and  O_46 
REMARK   18  A    between atoms: C_32  and  O_41 
REMARK   19  A    between atoms: C_33  and  C_35 
REMARK   20  A    between atoms: C_35  and  O_36 
REMARK   21  A    between atoms: O_36  and  C_37 
REMARK   22  A    between atoms: C_37  and  C_39 
REMARK   23  A    between atoms: O_41  and  C_42 
REMARK   24  A    between atoms: C_42  and  C_44 
REMARK   25  A    between atoms: O_46  and  C_47 
REMARK   26  A    between atoms: C_47  and  C_49 
REMARK   27  A    between atoms: O_51  and  C_52 
REMARK   28  A    between atoms: C_52  and  C_54 
REMARK   29  A    between atoms: C_57  and  O_59 
REMARK   30  A    between atoms: O_59  and  C_60 
REMARK   31  A    between atoms: C_60  and  C_61 
REMARK   32  A    between atoms: C_62  and  O_79 
REMARK   33  A    between atoms: C_63  and  O_75 
REMARK   34  A    between atoms: C_64  and  O_71 
REMARK   35  A    between atoms: C_65  and  O_67 
REMARK   36  A    between atoms: O_67  and  C_68 
REMARK   37  A    between atoms: O_71  and  C_72 
REMARK   38  A    between atoms: O_75  and  C_76 
REMARK   39  A    between atoms: O_79  and  C_80 
REMARK   40  A    between atoms: C_81  and  O_99 
REMARK   41  A    between atoms: C_82  and  O_95 
REMARK   42  A    between atoms: C_83  and  O_91 
REMARK   43  A    between atoms: C_84  and  C_86 
REMARK   44  A    between atoms: C_86  and  O_87 
REMARK   45  A    between atoms: O_87  and  C_88 
REMARK   46  A    between atoms: O_91  and  C_92 
REMARK   47  A    between atoms: O_95  and  C_96 
REMARK   48  A    between atoms: O_99  and  C_100 
REMARK   49  A    between atoms: C_103  and  C_104 
REMARK   50  A    between atoms: C_103  and  O_125 
REMARK   51  A    between atoms: C_105  and  O_124 
REMARK   52  A    between atoms: C_106  and  O_123 
REMARK   53  A    between atoms: C_107  and  O_122 
REMARK   54  A    between atoms: C_108  and  O_110 
REMARK   55  A    between atoms: O_110  and  C_111 
REMARK   56  A    between atoms: C_112  and  C_120 
REMARK   57  A    between atoms: C_114  and  O_119 
REMARK   58  A    between atoms: C_115  and  O_118 
REMARK   59  A    between atoms: C_116  and  O_117 
REMARK   60  A    between atoms: C_120  and  O_121 
ROOT
HETATM    1  O   UNL     3     -22.285  -3.409  -9.187  1.00  0.00    -0.348 OA
ENDROOT
BRANCH   1   2
HETATM    2  C   UNL     3     -21.626  -4.258  -8.230  1.00  0.00     0.292 C 
HETATM    3  C   UNL     3     -22.717  -4.977  -7.413  1.00  0.00     0.204 C 
HETATM    4  C   UNL     3     -22.128  -5.912  -6.343  1.00  0.00     0.183 C 
HETATM    5  C   UNL     3     -21.118  -5.142  -5.475  1.00  0.00     0.180 C 
HETATM    6  C   UNL     3     -20.095  -4.401  -6.368  1.00  0.00     0.179 C 
HETATM    7  O   UNL     3     -20.768  -3.557  -7.325  1.00  0.00    -0.348 OA
BRANCH   3   8
HETATM    8  O   UNL     3     -23.543  -3.997  -6.761  1.00  0.00    -0.388 OA
HETATM    9  H   UNL     3     -23.215  -3.085  -6.891  1.00  0.00     0.210 HD
ENDBRANCH   3   8
BRANCH   4  10
HETATM   10  O   UNL     3     -23.149  -6.505  -5.540  1.00  0.00    -0.390 OA
HETATM   11  H   UNL     3     -23.983  -6.001  -5.591  1.00  0.00     0.210 HD
ENDBRANCH   4  10
BRANCH   5  12
HETATM   12  O   UNL     3     -20.386  -5.988  -4.594  1.00  0.00    -0.390 OA
HETATM   13  H   UNL     3     -20.510  -6.933  -4.802  1.00  0.00     0.210 HD
ENDBRANCH   5  12
BRANCH   6  14
HETATM   14  C   UNL     3     -19.077  -5.386  -7.017  1.00  0.00     0.198 C 
BRANCH  14  15
HETATM   15  O   UNL     3     -19.577  -6.713  -7.065  1.00  0.00    -0.398 OA
HETATM   16  H   UNL     3     -20.405  -6.725  -7.576  1.00  0.00     0.209 HD
ENDBRANCH  14  15
ENDBRANCH   6  14
ENDBRANCH   1   2
BRANCH   1  17
HETATM   17  C   UNL     3     -22.504  -3.939 -10.500  1.00  0.00     0.187 C 
HETATM   18  C   UNL     3     -23.953  -4.316 -10.846  1.00  0.00     0.180 C 
HETATM   19  O   UNL     3     -24.120  -4.598 -12.264  1.00  0.00    -0.349 OA
HETATM   20  C   UNL     3     -23.757  -3.523 -13.127  1.00  0.00     0.288 C 
HETATM   21  C   UNL     3     -22.297  -3.211 -12.937  1.00  0.00     0.204 C 
HETATM   22  C   UNL     3     -21.964  -2.898 -11.494  1.00  0.00     0.183 C 
BRANCH  18  23
HETATM   23  C   UNL     3     -25.073  -3.357 -10.448  1.00  0.00     0.198 C 
BRANCH  23  24
HETATM   24  O   UNL     3     -24.974  -3.216  -9.025  1.00  0.00    -0.398 OA
HETATM   25  H   UNL     3     -25.647  -2.520  -8.811  1.00  0.00     0.209 HD
ENDBRANCH  23  24
ENDBRANCH  18  23
BRANCH  20  26
HETATM   26  O   UNL     3     -23.830  -4.015 -14.459  1.00  0.00    -0.369 OA
HETATM   27  H   UNL     3     -24.718  -3.813 -14.815  1.00  0.00     0.212 HD
ENDBRANCH  20  26
BRANCH  21  28
HETATM   28  O   UNL     3     -21.677  -4.441 -13.330  1.00  0.00    -0.388 OA
HETATM   29  H   UNL     3     -20.727  -4.219 -13.441  1.00  0.00     0.210 HD
ENDBRANCH  21  28
BRANCH  22  30
HETATM   30  O   UNL     3     -20.543  -2.836 -11.371  1.00  0.00    -0.390 OA
HETATM   31  H   UNL     3     -20.172  -2.847 -12.276  1.00  0.00     0.210 HD
ENDBRANCH  22  30
ENDBRANCH   1  17
TORSDOF 60
BEGIN_RES ARG D 557
REMARK  4 active torsions:
REMARK  status: ('A' for Active; 'I' for Inactive)
REMARK    1  A    between atoms: CA   and  CB  
REMARK    2  A    between atoms: CB   and  CG  
REMARK    3  A    between atoms: CG   and  CD  
REMARK    4  A    between atoms: CD   and  NE  
REMARK       I    between atoms: NE   and  CZ  
REMARK       I    between atoms: CZ   and  NH1 
REMARK       I    between atoms: CZ   and  NH2 
ROOT
ATOM      1  CA  ARG D 557     -26.217   2.705 -17.014  1.00 35.49     0.159 C 
ENDROOT
BRANCH   1   2
ATOM      2  CB  ARG D 557     -26.789   1.319 -17.183  1.00 35.49     0.034 C 
BRANCH   2   3
ATOM      3  CG  ARG D 557     -28.157   1.105 -16.696  1.00 35.49     0.027 C 
BRANCH   3   4
ATOM      4  CD  ARG D 557     -28.790  -0.091 -17.298  1.00 35.49     0.116 C 
BRANCH   4   5
ATOM      5  NE  ARG D 557     -28.173  -1.313 -16.853  1.00 35.49    -0.212 N 
ATOM      6  CZ  ARG D 557     -28.651  -2.524 -17.029  1.00 35.49     0.666 C 
ATOM      7  NH1 ARG D 557     -29.798  -2.751 -17.644  1.00 35.49    -0.235 N 
ATOM      8  NH2 ARG D 557     -27.946  -3.520 -16.577  1.00 35.49    -0.235 N 
ATOM      9  HH  ARG D 557     -30.277  -2.110 -17.951  1.00 35.49     0.174 HD
ATOM     10  HH  ARG D 557     -30.058  -3.562 -17.732  1.00 35.49     0.174 HD
ATOM     11  HH  ARG D 557     -27.207  -3.344 -16.191  1.00 35.49     0.174 HD
ATOM     12  HH  ARG D 557     -28.221  -4.316 -16.676  1.00 35.49     0.174 HD
ATOM     13  HE  ARG D 557     -27.466  -1.255 -16.383  1.00 35.49     0.178 HD
ENDBRANCH   4   5
ENDBRANCH   3   4
ENDBRANCH   2   3
ENDBRANCH   1   2
END_RES ARG D 557
BEGIN_RES GLU D 570
REMARK  3 active torsions:
REMARK  status: ('A' for Active; 'I' for Inactive)
REMARK    5  A    between atoms: CA   and  CB  
REMARK    6  A    between atoms: CB   and  CG  
REMARK    7  A    between atoms: CG   and  CD  
ROOT
ATOM     14  CA  GLU D 570     -18.033  -6.348 -13.375  1.00 32.92     0.160 C 
ENDROOT
BRANCH  14  15
ATOM     15  CB  GLU D 570     -19.500  -6.345 -13.794  1.00 32.92     0.043 C 
BRANCH  15  16
ATOM     16  CG  GLU D 570     -19.801  -6.556 -15.234  1.00 32.92     0.100 C 
BRANCH  16  17
ATOM     17  CD  GLU D 570     -21.144  -7.208 -15.466  1.00 32.92     0.185 C 
ATOM     18  OE1 GLU D 570     -22.181  -6.562 -15.222  1.00 32.92    -0.647 OA
ATOM     19  OE2 GLU D 570     -21.159  -8.384 -15.880  1.00 32.92    -0.647 OA
ENDBRANCH  16  17
ENDBRANCH  15  16
ENDBRANCH  14  15
END_RES GLU D 570
ENDMDL
MODEL 9
REMARK VINA RESULT:      -5.2      3.164      6.519
REMARK WARNING: 32 MAX_TORS EXCEEDED!!!
REMARK  60 active torsions:
REMARK  status: ('A' for Active; 'I' for Inactive)
REMARK    1  A    between atoms: C_2  and  C_3 
REMARK    2  A    between atoms: C_3  and  O_5 
REMARK    3  A    between atoms: O_5  and  C_6 
REMARK    4  A    between atoms: C_6  and  C_7 
REMARK    5  A    between atoms: C_8  and  O_28 
REMARK    6  A    between atoms: C_9  and  O_23 
REMARK    7  A    between atoms: C_10  and  O_18 
REMARK    8  A    between atoms: C_11  and  O_13 
REMARK    9  A    between atoms: O_13  and  C_14 
REMARK   10  A    between atoms: C_14  and  C_16 
REMARK   11  A    between atoms: O_18  and  C_19 
REMARK   12  A    between atoms: C_19  and  C_21 
REMARK   13  A    between atoms: O_23  and  C_24 
REMARK   14  A    between atoms: C_24  and  C_26 
REMARK   15  A    between atoms: O_28  and  C_29 
REMARK   16  A    between atoms: C_30  and  O_51 
REMARK   17  A    between atoms: C_31  and  O_46 
REMARK   18  A    between atoms: C_32  and  O_41 
REMARK   19  A    between atoms: C_33  and  C_35 
REMARK   20  A    between atoms: C_35  and  O_36 
REMARK   21  A    between atoms: O_36  and  C_37 
REMARK   22  A    between atoms: C_37  and  C_39 
REMARK   23  A    between atoms: O_41  and  C_42 
REMARK   24  A    between atoms: C_42  and  C_44 
REMARK   25  A    between atoms: O_46  and  C_47 
REMARK   26  A    between atoms: C_47  and  C_49 
REMARK   27  A    between atoms: O_51  and  C_52 
REMARK   28  A    between atoms: C_52  and  C_54 
REMARK   29  A    between atoms: C_57  and  O_59 
REMARK   30  A    between atoms: O_59  and  C_60 
REMARK   31  A    between atoms: C_60  and  C_61 
REMARK   32  A    between atoms: C_62  and  O_79 
REMARK   33  A    between atoms: C_63  and  O_75 
REMARK   34  A    between atoms: C_64  and  O_71 
REMARK   35  A    between atoms: C_65  and  O_67 
REMARK   36  A    between atoms: O_67  and  C_68 
REMARK   37  A    between atoms: O_71  and  C_72 
REMARK   38  A    between atoms: O_75  and  C_76 
REMARK   39  A    between atoms: O_79  and  C_80 
REMARK   40  A    between atoms: C_81  and  O_99 
REMARK   41  A    between atoms: C_82  and  O_95 
REMARK   42  A    between atoms: C_83  and  O_91 
REMARK   43  A    between atoms: C_84  and  C_86 
REMARK   44  A    between atoms: C_86  and  O_87 
REMARK   45  A    between atoms: O_87  and  C_88 
REMARK   46  A    between atoms: O_91  and  C_92 
REMARK   47  A    between atoms: O_95  and  C_96 
REMARK   48  A    between atoms: O_99  and  C_100 
REMARK   49  A    between atoms: C_103  and  C_104 
REMARK   50  A    between atoms: C_103  and  O_125 
REMARK   51  A    between atoms: C_105  and  O_124 
REMARK   52  A    between atoms: C_106  and  O_123 
REMARK   53  A    between atoms: C_107  and  O_122 
REMARK   54  A    between atoms: C_108  and  O_110 
REMARK   55  A    between atoms: O_110  and  C_111 
REMARK   56  A    between atoms: C_112  and  C_120 
REMARK   57  A    between atoms: C_114  and  O_119 
REMARK   58  A    between atoms: C_115  and  O_118 
REMARK   59  A    between atoms: C_116  and  O_117 
REMARK   60  A    between atoms: C_120  and  O_121 
ROOT
HETATM    1  O   UNL     3     -23.343  -4.024 -13.625  1.00  0.00    -0.348 OA
ENDROOT
BRANCH   1   2
HETATM    2  C   UNL     3     -22.886  -4.232 -12.277  1.00  0.00     0.292 C 
HETATM    3  C   UNL     3     -24.126  -4.280 -11.364  1.00  0.00     0.204 C 
HETATM    4  C   UNL     3     -23.758  -4.490  -9.885  1.00  0.00     0.183 C 
HETATM    5  C   UNL     3     -22.717  -3.444  -9.453  1.00  0.00     0.180 C 
HETATM    6  C   UNL     3     -21.534  -3.414 -10.450  1.00  0.00     0.179 C 
HETATM    7  O   UNL     3     -22.007  -3.209 -11.797  1.00  0.00    -0.348 OA
BRANCH   3   8
HETATM    8  O   UNL     3     -24.851  -3.044 -11.485  1.00  0.00    -0.388 OA
HETATM    9  H   UNL     3     -25.816  -3.165 -11.380  1.00  0.00     0.210 HD
ENDBRANCH   3   8
BRANCH   4  10
HETATM   10  O   UNL     3     -24.910  -4.448  -9.043  1.00  0.00    -0.390 OA
HETATM   11  H   UNL     3     -24.680  -4.631  -8.112  1.00  0.00     0.210 HD
ENDBRANCH   4  10
BRANCH   5  12
HETATM   12  O   UNL     3     -22.181  -3.698  -8.158  1.00  0.00    -0.390 OA
HETATM   13  H   UNL     3     -21.852  -2.886  -7.729  1.00  0.00     0.210 HD
ENDBRANCH   5  12
BRANCH   6  14
HETATM   14  C   UNL     3     -20.621  -4.667 -10.296  1.00  0.00     0.198 C 
BRANCH  14  15
HETATM   15  O   UNL     3     -19.817  -4.599  -9.128  1.00  0.00    -0.398 OA
HETATM   16  H   UNL     3     -18.880  -4.671  -9.379  1.00  0.00     0.209 HD
ENDBRANCH  14  15
ENDBRANCH   6  14
ENDBRANCH   1   2
BRANCH   1  17
HETATM   17  C   UNL     3     -24.446  -4.817 -14.079  1.00  0.00     0.187 C 
HETATM   18  C   UNL     3     -25.705  -4.047 -14.507  1.00  0.00     0.180 C 
HETATM   19  O   UNL     3     -26.666  -4.904 -15.187  1.00  0.00    -0.349 OA
HETATM   20  C   UNL     3     -26.160  -5.548 -16.353  1.00  0.00     0.288 C 
HETATM   21  C   UNL     3     -25.013  -6.440 -15.965  1.00  0.00     0.204 C 
HETATM   22  C   UNL     3     -23.923  -5.684 -15.236  1.00  0.00     0.183 C 
BRANCH  18  23
HETATM   23  C   UNL     3     -25.539  -2.795 -15.368  1.00  0.00     0.198 C 
BRANCH  23  24
HETATM   24  O   UNL     3     -26.514  -1.862 -14.887  1.00  0.00    -0.398 OA
HETATM   25  H   UNL     3     -26.116  -1.521 -14.045  1.00  0.00     0.209 HD
ENDBRANCH  23  24
ENDBRANCH  18  23
BRANCH  20  26
HETATM   26  O   UNL     3     -27.163  -6.455 -16.795  1.00  0.00    -0.369 OA
HETATM   27  H   UNL     3     -28.033  -6.015 -16.721  1.00  0.00     0.212 HD
ENDBRANCH  20  26
BRANCH  21  28
HETATM   28  O   UNL     3     -25.647  -7.369 -15.076  1.00  0.00    -0.388 OA
HETATM   29  H   UNL     3     -26.129  -6.808 -14.430  1.00  0.00     0.210 HD
ENDBRANCH  21  28
BRANCH  22  30
HETATM   30  O   UNL     3     -22.994  -6.635 -14.716  1.00  0.00    -0.390 OA
HETATM   31  H   UNL     3     -22.123  -6.437 -15.112  1.00  0.00     0.210 HD
ENDBRANCH  22  30
ENDBRANCH   1  17
TORSDOF 60
BEGIN_RES ARG D 557
REMARK  4 active torsions:
REMARK  status: ('A' for Active; 'I' for Inactive)
REMARK    1  A    between atoms: CA   and  CB  
REMARK    2  A    between atoms: CB   and  CG  
REMARK    3  A    between atoms: CG   and  CD  
REMARK    4  A    between atoms: CD   and  NE  
REMARK       I    between atoms: NE   and  CZ  
REMARK       I    between atoms: CZ   and  NH1 
REMARK       I    between atoms: CZ   and  NH2 
ROOT
ATOM      1  CA  ARG D 557     -26.217   2.705 -17.014  1.00 35.49     0.159 C 
ENDROOT
BRANCH   1   2
ATOM      2  CB  ARG D 557     -26.789   1.319 -17.183  1.00 35.49     0.034 C 
BRANCH   2   3
ATOM      3  CG  ARG D 557     -28.112   1.074 -16.597  1.00 35.49     0.027 C 
BRANCH   3   4
ATOM      4  CD  ARG D 557     -28.874   0.041 -17.334  1.00 35.49     0.116 C 
BRANCH   4   5
ATOM      5  NE  ARG D 557     -28.380  -1.286 -17.075  1.00 35.49    -0.212 N 
ATOM      6  CZ  ARG D 557     -29.068  -2.399 -17.195  1.00 35.49     0.666 C 
ATOM      7  NH1 ARG D 557     -30.335  -2.413 -17.565  1.00 35.49    -0.235 N 
ATOM      8  NH2 ARG D 557     -28.451  -3.516 -16.939  1.00 35.49    -0.235 N 
ATOM      9  HH  ARG D 557     -30.760  -1.690 -17.741  1.00 35.49     0.174 HD
ATOM     10  HH  ARG D 557     -30.732  -3.170 -17.629  1.00 35.49     0.174 HD
ATOM     11  HH  ARG D 557     -27.631  -3.477 -16.709  1.00 35.49     0.174 HD
ATOM     12  HH  ARG D 557     -28.861  -4.255 -17.008  1.00 35.49     0.174 HD
ATOM     13  HE  ARG D 557     -27.593  -1.364 -16.762  1.00 35.49     0.178 HD
ENDBRANCH   4   5
ENDBRANCH   3   4
ENDBRANCH   2   3
ENDBRANCH   1   2
END_RES ARG D 557
BEGIN_RES GLU D 570
REMARK  3 active torsions:
REMARK  status: ('A' for Active; 'I' for Inactive)
REMARK    5  A    between atoms: CA   and  CB  
REMARK    6  A    between atoms: CB   and  CG  
REMARK    7  A    between atoms: CG   and  CD  
ROOT
ATOM     14  CA  GLU D 570     -18.033  -6.348 -13.375  1.00 32.92     0.160 C 
ENDROOT
BRANCH  14  15
ATOM     15  CB  GLU D 570     -19.500  -6.345 -13.794  1.00 32.92     0.043 C 
BRANCH  15  16
ATOM     16  CG  GLU D 570     -19.800  -6.144 -15.235  1.00 32.92     0.100 C 
BRANCH  16  17
ATOM     17  CD  GLU D 570     -20.545  -7.305 -15.850  1.00 32.92     0.185 C 
ATOM     18  OE1 GLU D 570     -20.532  -8.408 -15.270  1.00 32.92    -0.647 OA
ATOM     19  OE2 GLU D 570     -21.136  -7.115 -16.931  1.00 32.92    -0.647 OA
ENDBRANCH  16  17
ENDBRANCH  15  16
ENDBRANCH  14  15
END_RES GLU D 570
ENDMDL
