MODEL 1
REMARK VINA RESULT:      -4.1      0.000      0.000
REMARK  3 active torsions:
REMARK  status: ('A' for Active; 'I' for Inactive)
REMARK    1  A    between atoms: C_2  and  C_3 
REMARK    2  A    between atoms: C_3  and  O_4 
REMARK    3  A    between atoms: C_3  and  O_5 
ROOT
HETATM    1  C   UNL     1     -24.671  -3.319 -10.183  1.00  0.00     0.253 C 
ENDROOT
BRANCH   1   2
HETATM    2  C   UNL     1     -23.974  -4.640  -9.879  1.00  0.00     0.056 C 
HETATM    3  C   UNL     1     -22.503  -4.441  -9.560  1.00  0.00     0.010 C 
ENDBRANCH   1   2
BRANCH   1   4
HETATM    4  O   UNL     1     -24.855  -3.191 -11.578  1.00  0.00    -0.372 OA
HETATM    5  H   UNL     1     -25.713  -3.599 -11.770  1.00  0.00     0.212 HD
ENDBRANCH   1   4
BRANCH   1   6
HETATM    6  O   UNL     1     -25.935  -3.261  -9.554  1.00  0.00    -0.372 OA
HETATM    7  H   UNL     1     -26.556  -3.756 -10.114  1.00  0.00     0.212 HD
ENDBRANCH   1   6
TORSDOF 3
BEGIN_RES ARG D 557
REMARK  4 active torsions:
REMARK  status: ('A' for Active; 'I' for Inactive)
REMARK    1  A    between atoms: CA   and  CB  
REMARK    2  A    between atoms: CB   and  CG  
REMARK    3  A    between atoms: CG   and  CD  
REMARK    4  A    between atoms: CD   and  NE  
REMARK       I    between atoms: NE   and  CZ  
REMARK       I    between atoms: CZ   and  NH1 
REMARK       I    between atoms: CZ   and  NH2 
ROOT
ATOM      1  CA  ARG D 557     -26.217   2.705 -17.014  1.00 35.49     0.159 C 
ENDROOT
BRANCH   1   2
ATOM      2  CB  ARG D 557     -26.789   1.319 -17.183  1.00 35.49     0.034 C 
BRANCH   2   3
ATOM      3  CG  ARG D 557     -25.854   0.196 -17.037  1.00 35.49     0.027 C 
BRANCH   3   4
ATOM      4  CD  ARG D 557     -26.139  -0.623 -15.837  1.00 35.49     0.116 C 
BRANCH   4   5
ATOM      5  NE  ARG D 557     -24.995  -0.734 -14.972  1.00 35.49    -0.212 N 
ATOM      6  CZ  ARG D 557     -24.541  -1.846 -14.437  1.00 35.49     0.666 C 
ATOM      7  NH1 ARG D 557     -25.120  -3.016 -14.635  1.00 35.49    -0.235 N 
ATOM      8  NH2 ARG D 557     -23.476  -1.763 -13.694  1.00 35.49    -0.235 N 
ATOM      9  HH  ARG D 557     -25.820  -3.094 -15.123  1.00 35.49     0.174 HD
ATOM     10  HH  ARG D 557     -24.778  -3.707 -14.262  1.00 35.49     0.174 HD
ATOM     11  HH  ARG D 557     -23.119  -0.995 -13.590  1.00 35.49     0.174 HD
ATOM     12  HH  ARG D 557     -23.152  -2.459 -13.335  1.00 35.49     0.174 HD
ATOM     13  HE  ARG D 557     -24.604  -0.018 -14.733  1.00 35.49     0.178 HD
ENDBRANCH   4   5
ENDBRANCH   3   4
ENDBRANCH   2   3
ENDBRANCH   1   2
END_RES ARG D 557
BEGIN_RES GLU D 570
REMARK  3 active torsions:
REMARK  status: ('A' for Active; 'I' for Inactive)
REMARK    5  A    between atoms: CA   and  CB  
REMARK    6  A    between atoms: CB   and  CG  
REMARK    7  A    between atoms: CG   and  CD  
ROOT
ATOM     14  CA  GLU D 570     -18.033  -6.348 -13.375  1.00 32.92     0.160 C 
ENDROOT
BRANCH  14  15
ATOM     15  CB  GLU D 570     -19.500  -6.345 -13.794  1.00 32.92     0.043 C 
BRANCH  15  16
ATOM     16  CG  GLU D 570     -20.444  -5.539 -12.977  1.00 32.92     0.100 C 
BRANCH  16  17
ATOM     17  CD  GLU D 570     -21.649  -5.072 -13.759  1.00 32.92     0.185 C 
ATOM     18  OE1 GLU D 570     -21.637  -5.162 -15.002  1.00 32.92    -0.647 OA
ATOM     19  OE2 GLU D 570     -22.609  -4.594 -13.123  1.00 32.92    -0.647 OA
ENDBRANCH  16  17
ENDBRANCH  15  16
ENDBRANCH  14  15
END_RES GLU D 570
ENDMDL
MODEL 2
REMARK VINA RESULT:      -3.8      1.746      2.136
REMARK  3 active torsions:
REMARK  status: ('A' for Active; 'I' for Inactive)
REMARK    1  A    between atoms: C_2  and  C_3 
REMARK    2  A    between atoms: C_3  and  O_4 
REMARK    3  A    between atoms: C_3  and  O_5 
ROOT
HETATM    1  C   UNL     1     -24.562  -3.339 -10.424  1.00  0.00     0.253 C 
ENDROOT
BRANCH   1   2
HETATM    2  C   UNL     1     -23.921  -4.710 -10.249  1.00  0.00     0.056 C 
HETATM    3  C   UNL     1     -22.490  -4.603  -9.752  1.00  0.00     0.010 C 
ENDBRANCH   1   2
BRANCH   1   4
HETATM    4  O   UNL     1     -24.831  -3.114 -11.793  1.00  0.00    -0.372 OA
HETATM    5  H   UNL     1     -24.018  -3.351 -12.265  1.00  0.00     0.212 HD
ENDBRANCH   1   4
BRANCH   1   6
HETATM    6  O   UNL     1     -25.777  -3.255  -9.708  1.00  0.00    -0.372 OA
HETATM    7  H   UNL     1     -26.347  -2.628 -10.182  1.00  0.00     0.212 HD
ENDBRANCH   1   6
TORSDOF 3
BEGIN_RES ARG D 557
REMARK  4 active torsions:
REMARK  status: ('A' for Active; 'I' for Inactive)
REMARK    1  A    between atoms: CA   and  CB  
REMARK    2  A    between atoms: CB   and  CG  
REMARK    3  A    between atoms: CG   and  CD  
REMARK    4  A    between atoms: CD   and  NE  
REMARK       I    between atoms: NE   and  CZ  
REMARK       I    between atoms: CZ   and  NH1 
REMARK       I    between atoms: CZ   and  NH2 
ROOT
ATOM      1  CA  ARG D 557     -26.217   2.705 -17.014  1.00 35.49     0.159 C 
ENDROOT
BRANCH   1   2
ATOM      2  CB  ARG D 557     -26.789   1.319 -17.183  1.00 35.49     0.034 C 
BRANCH   2   3
ATOM      3  CG  ARG D 557     -28.221   1.157 -16.904  1.00 35.49     0.027 C 
BRANCH   3   4
ATOM      4  CD  ARG D 557     -28.604  -0.263 -16.725  1.00 35.49     0.116 C 
BRANCH   4   5
ATOM      5  NE  ARG D 557     -27.603  -1.008 -16.008  1.00 35.49    -0.212 N 
ATOM      6  CZ  ARG D 557     -27.419  -2.307 -16.074  1.00 35.49     0.666 C 
ATOM      7  NH1 ARG D 557     -28.171  -3.093 -16.821  1.00 35.49    -0.235 N 
ATOM      8  NH2 ARG D 557     -26.448  -2.813 -15.370  1.00 35.49    -0.235 N 
ATOM      9  HH  ARG D 557     -28.815  -2.782 -17.294  1.00 35.49     0.174 HD
ATOM     10  HH  ARG D 557     -28.003  -3.933 -16.827  1.00 35.49     0.174 HD
ATOM     11  HH  ARG D 557     -25.973  -2.280 -14.902  1.00 35.49     0.174 HD
ATOM     12  HH  ARG D 557     -26.296  -3.647 -15.390  1.00 35.49     0.174 HD
ATOM     13  HE  ARG D 557     -27.120  -0.590 -15.446  1.00 35.49     0.178 HD
ENDBRANCH   4   5
ENDBRANCH   3   4
ENDBRANCH   2   3
ENDBRANCH   1   2
END_RES ARG D 557
BEGIN_RES GLU D 570
REMARK  3 active torsions:
REMARK  status: ('A' for Active; 'I' for Inactive)
REMARK    5  A    between atoms: CA   and  CB  
REMARK    6  A    between atoms: CB   and  CG  
REMARK    7  A    between atoms: CG   and  CD  
ROOT
ATOM     14  CA  GLU D 570     -18.033  -6.348 -13.375  1.00 32.92     0.160 C 
ENDROOT
BRANCH  14  15
ATOM     15  CB  GLU D 570     -19.500  -6.345 -13.794  1.00 32.92     0.043 C 
BRANCH  15  16
ATOM     16  CG  GLU D 570     -20.445  -5.543 -12.974  1.00 32.92     0.100 C 
BRANCH  16  17
ATOM     17  CD  GLU D 570     -21.735  -5.233 -13.696  1.00 32.92     0.185 C 
ATOM     18  OE1 GLU D 570     -22.383  -4.221 -13.368  1.00 32.92    -0.647 OA
ATOM     19  OE2 GLU D 570     -22.110  -6.020 -14.587  1.00 32.92    -0.647 OA
ENDBRANCH  16  17
ENDBRANCH  15  16
ENDBRANCH  14  15
END_RES GLU D 570
ENDMDL
MODEL 3
REMARK VINA RESULT:      -3.8      5.299      5.842
REMARK  3 active torsions:
REMARK  status: ('A' for Active; 'I' for Inactive)
REMARK    1  A    between atoms: C_2  and  C_3 
REMARK    2  A    between atoms: C_3  and  O_4 
REMARK    3  A    between atoms: C_3  and  O_5 
ROOT
HETATM    1  C   UNL     1     -33.839  -3.931 -13.060  1.00  0.00     0.253 C 
ENDROOT
BRANCH   1   2
HETATM    2  C   UNL     1     -33.127  -3.842 -11.715  1.00  0.00     0.056 C 
HETATM    3  C   UNL     1     -33.460  -2.552 -10.986  1.00  0.00     0.010 C 
ENDBRANCH   1   2
BRANCH   1   4
HETATM    4  O   UNL     1     -34.745  -5.015 -13.045  1.00  0.00    -0.372 OA
HETATM    5  H   UNL     1     -34.355  -5.678 -12.455  1.00  0.00     0.212 HD
ENDBRANCH   1   4
BRANCH   1   6
HETATM    6  O   UNL     1     -34.560  -2.746 -13.328  1.00  0.00    -0.372 OA
HETATM    7  H   UNL     1     -35.438  -3.010 -13.647  1.00  0.00     0.212 HD
ENDBRANCH   1   6
TORSDOF 3
BEGIN_RES ARG D 557
REMARK  4 active torsions:
REMARK  status: ('A' for Active; 'I' for Inactive)
REMARK    1  A    between atoms: CA   and  CB  
REMARK    2  A    between atoms: CB   and  CG  
REMARK    3  A    between atoms: CG   and  CD  
REMARK    4  A    between atoms: CD   and  NE  
REMARK       I    between atoms: NE   and  CZ  
REMARK       I    between atoms: CZ   and  NH1 
REMARK       I    between atoms: CZ   and  NH2 
ROOT
ATOM      1  CA  ARG D 557     -26.217   2.705 -17.014  1.00 35.49     0.159 C 
ENDROOT
BRANCH   1   2
ATOM      2  CB  ARG D 557     -26.789   1.319 -17.183  1.00 35.49     0.034 C 
BRANCH   2   3
ATOM      3  CG  ARG D 557     -25.836   0.203 -17.150  1.00 35.49     0.027 C 
BRANCH   3   4
ATOM      4  CD  ARG D 557     -24.753   0.414 -16.163  1.00 35.49     0.116 C 
BRANCH   4   5
ATOM      5  NE  ARG D 557     -24.894  -0.437 -15.011  1.00 35.49    -0.212 N 
ATOM      6  CZ  ARG D 557     -24.078  -1.408 -14.669  1.00 35.49     0.666 C 
ATOM      7  NH1 ARG D 557     -23.012  -1.722 -15.381  1.00 35.49    -0.235 N 
ATOM      8  NH2 ARG D 557     -24.350  -2.064 -13.578  1.00 35.49    -0.235 N 
ATOM      9  HH  ARG D 557     -22.813  -1.302 -16.101  1.00 35.49     0.174 HD
ATOM     10  HH  ARG D 557     -22.514  -2.364 -15.107  1.00 35.49     0.174 HD
ATOM     11  HH  ARG D 557     -25.041  -1.834 -13.134  1.00 35.49     0.174 HD
ATOM     12  HH  ARG D 557     -23.844  -2.695 -13.323  1.00 35.49     0.174 HD
ATOM     13  HE  ARG D 557     -25.594  -0.351 -14.535  1.00 35.49     0.178 HD
ENDBRANCH   4   5
ENDBRANCH   3   4
ENDBRANCH   2   3
ENDBRANCH   1   2
END_RES ARG D 557
BEGIN_RES GLU D 570
REMARK  3 active torsions:
REMARK  status: ('A' for Active; 'I' for Inactive)
REMARK    5  A    between atoms: CA   and  CB  
REMARK    6  A    between atoms: CB   and  CG  
REMARK    7  A    between atoms: CG   and  CD  
ROOT
ATOM     14  CA  GLU D 570     -18.033  -6.348 -13.375  1.00 32.92     0.160 C 
ENDROOT
BRANCH  14  15
ATOM     15  CB  GLU D 570     -19.500  -6.345 -13.794  1.00 32.92     0.043 C 
BRANCH  15  16
ATOM     16  CG  GLU D 570     -20.447  -5.555 -12.966  1.00 32.92     0.100 C 
BRANCH  16  17
ATOM     17  CD  GLU D 570     -21.742  -5.249 -13.681  1.00 32.92     0.185 C 
ATOM     18  OE1 GLU D 570     -22.260  -6.127 -14.397  1.00 32.92    -0.647 OA
ATOM     19  OE2 GLU D 570     -22.235  -4.113 -13.537  1.00 32.92    -0.647 OA
ENDBRANCH  16  17
ENDBRANCH  15  16
ENDBRANCH  14  15
END_RES GLU D 570
ENDMDL
MODEL 4
REMARK VINA RESULT:      -3.8      8.076      9.255
REMARK  3 active torsions:
REMARK  status: ('A' for Active; 'I' for Inactive)
REMARK    1  A    between atoms: C_2  and  C_3 
REMARK    2  A    between atoms: C_3  and  O_4 
REMARK    3  A    between atoms: C_3  and  O_5 
ROOT
HETATM    1  C   UNL     1     -30.027 -14.564 -21.247  1.00  0.00     0.253 C 
ENDROOT
BRANCH   1   2
HETATM    2  C   UNL     1     -30.332 -14.588 -19.754  1.00  0.00     0.056 C 
HETATM    3  C   UNL     1     -29.214 -13.959 -18.941  1.00  0.00     0.010 C 
ENDBRANCH   1   2
BRANCH   1   4
HETATM    4  O   UNL     1     -31.138 -14.046 -21.949  1.00  0.00    -0.372 OA
HETATM    5  H   UNL     1     -31.766 -14.781 -22.030  1.00  0.00     0.212 HD
ENDBRANCH   1   4
BRANCH   1   6
HETATM    6  O   UNL     1     -28.904 -13.750 -21.519  1.00  0.00    -0.372 OA
HETATM    7  H   UNL     1     -28.940 -12.997 -20.907  1.00  0.00     0.212 HD
ENDBRANCH   1   6
TORSDOF 3
BEGIN_RES ARG D 557
REMARK  4 active torsions:
REMARK  status: ('A' for Active; 'I' for Inactive)
REMARK    1  A    between atoms: CA   and  CB  
REMARK    2  A    between atoms: CB   and  CG  
REMARK    3  A    between atoms: CG   and  CD  
REMARK    4  A    between atoms: CD   and  NE  
REMARK       I    between atoms: NE   and  CZ  
REMARK       I    between atoms: CZ   and  NH1 
REMARK       I    between atoms: CZ   and  NH2 
ROOT
ATOM      1  CA  ARG D 557     -26.217   2.705 -17.014  1.00 35.49     0.159 C 
ENDROOT
BRANCH   1   2
ATOM      2  CB  ARG D 557     -26.789   1.319 -17.183  1.00 35.49     0.034 C 
BRANCH   2   3
ATOM      3  CG  ARG D 557     -25.931   0.197 -16.783  1.00 35.49     0.027 C 
BRANCH   3   4
ATOM      4  CD  ARG D 557     -26.684  -0.867 -16.081  1.00 35.49     0.116 C 
BRANCH   4   5
ATOM      5  NE  ARG D 557     -25.942  -1.420 -14.979  1.00 35.49    -0.212 N 
ATOM      6  CZ  ARG D 557     -25.910  -2.688 -14.634  1.00 35.49     0.666 C 
ATOM      7  NH1 ARG D 557     -26.593  -3.616 -15.279  1.00 35.49    -0.235 N 
ATOM      8  NH2 ARG D 557     -25.164  -3.015 -13.619  1.00 35.49    -0.235 N 
ATOM      9  HH  ARG D 557     -27.088  -3.424 -15.951  1.00 35.49     0.174 HD
ATOM     10  HH  ARG D 557     -26.531  -4.427 -15.010  1.00 35.49     0.174 HD
ATOM     11  HH  ARG D 557     -24.728  -2.396 -13.226  1.00 35.49     0.174 HD
ATOM     12  HH  ARG D 557     -25.115  -3.824 -13.369  1.00 35.49     0.174 HD
ATOM     13  HE  ARG D 557     -25.530  -0.883 -14.465  1.00 35.49     0.178 HD
ENDBRANCH   4   5
ENDBRANCH   3   4
ENDBRANCH   2   3
ENDBRANCH   1   2
END_RES ARG D 557
BEGIN_RES GLU D 570
REMARK  3 active torsions:
REMARK  status: ('A' for Active; 'I' for Inactive)
REMARK    5  A    between atoms: CA   and  CB  
REMARK    6  A    between atoms: CB   and  CG  
REMARK    7  A    between atoms: CG   and  CD  
ROOT
ATOM     14  CA  GLU D 570     -18.033  -6.348 -13.375  1.00 32.92     0.160 C 
ENDROOT
BRANCH  14  15
ATOM     15  CB  GLU D 570     -19.500  -6.345 -13.794  1.00 32.92     0.043 C 
BRANCH  15  16
ATOM     16  CG  GLU D 570     -20.440  -5.523 -12.989  1.00 32.92     0.100 C 
BRANCH  16  17
ATOM     17  CD  GLU D 570     -21.744  -5.250 -13.702  1.00 32.92     0.185 C 
ATOM     18  OE1 GLU D 570     -22.305  -4.150 -13.536  1.00 32.92    -0.647 OA
ATOM     19  OE2 GLU D 570     -22.216  -6.151 -14.422  1.00 32.92    -0.647 OA
ENDBRANCH  16  17
ENDBRANCH  15  16
ENDBRANCH  14  15
END_RES GLU D 570
ENDMDL
MODEL 5
REMARK VINA RESULT:      -3.8      8.357      9.631
REMARK  3 active torsions:
REMARK  status: ('A' for Active; 'I' for Inactive)
REMARK    1  A    between atoms: C_2  and  C_3 
REMARK    2  A    between atoms: C_3  and  O_4 
REMARK    3  A    between atoms: C_3  and  O_5 
ROOT
HETATM    1  C   UNL     1     -30.001 -14.539 -21.229  1.00  0.00     0.253 C 
ENDROOT
BRANCH   1   2
HETATM    2  C   UNL     1     -30.329 -14.563 -19.740  1.00  0.00     0.056 C 
HETATM    3  C   UNL     1     -29.205 -13.975 -18.906  1.00  0.00     0.010 C 
ENDBRANCH   1   2
BRANCH   1   4
HETATM    4  O   UNL     1     -31.115 -14.056 -21.951  1.00  0.00    -0.372 OA
HETATM    5  H   UNL     1     -31.297 -13.172 -21.596  1.00  0.00     0.212 HD
ENDBRANCH   1   4
BRANCH   1   6
HETATM    6  O   UNL     1     -28.897 -13.697 -21.488  1.00  0.00    -0.372 OA
HETATM    7  H   UNL     1     -28.371 -14.120 -22.186  1.00  0.00     0.212 HD
ENDBRANCH   1   6
TORSDOF 3
BEGIN_RES ARG D 557
REMARK  4 active torsions:
REMARK  status: ('A' for Active; 'I' for Inactive)
REMARK    1  A    between atoms: CA   and  CB  
REMARK    2  A    between atoms: CB   and  CG  
REMARK    3  A    between atoms: CG   and  CD  
REMARK    4  A    between atoms: CD   and  NE  
REMARK       I    between atoms: NE   and  CZ  
REMARK       I    between atoms: CZ   and  NH1 
REMARK       I    between atoms: CZ   and  NH2 
ROOT
ATOM      1  CA  ARG D 557     -26.217   2.705 -17.014  1.00 35.49     0.159 C 
ENDROOT
BRANCH   1   2
ATOM      2  CB  ARG D 557     -26.789   1.319 -17.183  1.00 35.49     0.034 C 
BRANCH   2   3
ATOM      3  CG  ARG D 557     -28.231   1.226 -17.442  1.00 35.49     0.027 C 
BRANCH   3   4
ATOM      4  CD  ARG D 557     -28.914   0.305 -16.505  1.00 35.49     0.116 C 
BRANCH   4   5
ATOM      5  NE  ARG D 557     -29.284  -0.934 -17.136  1.00 35.49    -0.212 N 
ATOM      6  CZ  ARG D 557     -28.644  -2.076 -17.020  1.00 35.49     0.666 C 
ATOM      7  NH1 ARG D 557     -27.547  -2.204 -16.297  1.00 35.49    -0.235 N 
ATOM      8  NH2 ARG D 557     -29.134  -3.106 -17.647  1.00 35.49    -0.235 N 
ATOM      9  HH  ARG D 557     -27.208  -1.540 -15.874  1.00 35.49     0.174 HD
ATOM     10  HH  ARG D 557     -27.174  -2.974 -16.256  1.00 35.49     0.174 HD
ATOM     11  HH  ARG D 557     -29.848  -2.995 -18.101  1.00 35.49     0.174 HD
ATOM     12  HH  ARG D 557     -28.751  -3.860 -17.593  1.00 35.49     0.174 HD
ATOM     13  HE  ARG D 557     -29.938  -0.926 -17.680  1.00 35.49     0.178 HD
ENDBRANCH   4   5
ENDBRANCH   3   4
ENDBRANCH   2   3
ENDBRANCH   1   2
END_RES ARG D 557
BEGIN_RES GLU D 570
REMARK  3 active torsions:
REMARK  status: ('A' for Active; 'I' for Inactive)
REMARK    5  A    between atoms: CA   and  CB  
REMARK    6  A    between atoms: CB   and  CG  
REMARK    7  A    between atoms: CG   and  CD  
ROOT
ATOM     14  CA  GLU D 570     -18.033  -6.348 -13.375  1.00 32.92     0.160 C 
ENDROOT
BRANCH  14  15
ATOM     15  CB  GLU D 570     -19.500  -6.345 -13.794  1.00 32.92     0.043 C 
BRANCH  15  16
ATOM     16  CG  GLU D 570     -20.450  -5.570 -12.955  1.00 32.92     0.100 C 
BRANCH  16  17
ATOM     17  CD  GLU D 570     -21.696  -5.157 -13.703  1.00 32.92     0.185 C 
ATOM     18  OE1 GLU D 570     -22.743  -4.943 -13.063  1.00 32.92    -0.647 OA
ATOM     19  OE2 GLU D 570     -21.627  -5.061 -14.944  1.00 32.92    -0.647 OA
ENDBRANCH  16  17
ENDBRANCH  15  16
ENDBRANCH  14  15
END_RES GLU D 570
ENDMDL
MODEL 6
REMARK VINA RESULT:      -3.6      5.478      6.434
REMARK  3 active torsions:
REMARK  status: ('A' for Active; 'I' for Inactive)
REMARK    1  A    between atoms: C_2  and  C_3 
REMARK    2  A    between atoms: C_3  and  O_4 
REMARK    3  A    between atoms: C_3  and  O_5 
ROOT
HETATM    1  C   UNL     1     -26.007   6.662 -10.576  1.00  0.00     0.253 C 
ENDROOT
BRANCH   1   2
HETATM    2  C   UNL     1     -24.882   7.072 -11.520  1.00  0.00     0.056 C 
HETATM    3  C   UNL     1     -24.716   8.580 -11.576  1.00  0.00     0.010 C 
ENDBRANCH   1   2
BRANCH   1   4
HETATM    4  O   UNL     1     -27.254   6.876 -11.205  1.00  0.00    -0.372 OA
HETATM    5  H   UNL     1     -27.277   6.271 -11.961  1.00  0.00     0.212 HD
ENDBRANCH   1   4
BRANCH   1   6
HETATM    6  O   UNL     1     -25.905   5.294 -10.235  1.00  0.00    -0.372 OA
HETATM    7  H   UNL     1     -26.805   4.974 -10.063  1.00  0.00     0.212 HD
ENDBRANCH   1   6
TORSDOF 3
BEGIN_RES ARG D 557
REMARK  4 active torsions:
REMARK  status: ('A' for Active; 'I' for Inactive)
REMARK    1  A    between atoms: CA   and  CB  
REMARK    2  A    between atoms: CB   and  CG  
REMARK    3  A    between atoms: CG   and  CD  
REMARK    4  A    between atoms: CD   and  NE  
REMARK       I    between atoms: NE   and  CZ  
REMARK       I    between atoms: CZ   and  NH1 
REMARK       I    between atoms: CZ   and  NH2 
ROOT
ATOM      1  CA  ARG D 557     -26.217   2.705 -17.014  1.00 35.49     0.159 C 
ENDROOT
BRANCH   1   2
ATOM      2  CB  ARG D 557     -26.789   1.319 -17.183  1.00 35.49     0.034 C 
BRANCH   2   3
ATOM      3  CG  ARG D 557     -25.836   0.203 -17.153  1.00 35.49     0.027 C 
BRANCH   3   4
ATOM      4  CD  ARG D 557     -24.751   0.413 -16.167  1.00 35.49     0.116 C 
BRANCH   4   5
ATOM      5  NE  ARG D 557     -24.895  -0.434 -15.013  1.00 35.49    -0.212 N 
ATOM      6  CZ  ARG D 557     -24.081  -1.406 -14.667  1.00 35.49     0.666 C 
ATOM      7  NH1 ARG D 557     -23.015  -1.725 -15.378  1.00 35.49    -0.235 N 
ATOM      8  NH2 ARG D 557     -24.354  -2.058 -13.575  1.00 35.49    -0.235 N 
ATOM      9  HH  ARG D 557     -22.815  -1.307 -16.099  1.00 35.49     0.174 HD
ATOM     10  HH  ARG D 557     -22.519  -2.366 -15.102  1.00 35.49     0.174 HD
ATOM     11  HH  ARG D 557     -25.045  -1.826 -13.132  1.00 35.49     0.174 HD
ATOM     12  HH  ARG D 557     -23.850  -2.689 -13.318  1.00 35.49     0.174 HD
ATOM     13  HE  ARG D 557     -25.595  -0.346 -14.538  1.00 35.49     0.178 HD
ENDBRANCH   4   5
ENDBRANCH   3   4
ENDBRANCH   2   3
ENDBRANCH   1   2
END_RES ARG D 557
BEGIN_RES GLU D 570
REMARK  3 active torsions:
REMARK  status: ('A' for Active; 'I' for Inactive)
REMARK    5  A    between atoms: CA   and  CB  
REMARK    6  A    between atoms: CB   and  CG  
REMARK    7  A    between atoms: CG   and  CD  
ROOT
ATOM     14  CA  GLU D 570     -18.033  -6.348 -13.375  1.00 32.92     0.160 C 
ENDROOT
BRANCH  14  15
ATOM     15  CB  GLU D 570     -19.500  -6.345 -13.794  1.00 32.92     0.043 C 
BRANCH  15  16
ATOM     16  CG  GLU D 570     -20.443  -5.536 -12.979  1.00 32.92     0.100 C 
BRANCH  16  17
ATOM     17  CD  GLU D 570     -21.734  -5.231 -13.702  1.00 32.92     0.185 C 
ATOM     18  OE1 GLU D 570     -22.306  -4.145 -13.487  1.00 32.92    -0.647 OA
ATOM     19  OE2 GLU D 570     -22.188  -6.094 -14.478  1.00 32.92    -0.647 OA
ENDBRANCH  16  17
ENDBRANCH  15  16
ENDBRANCH  14  15
END_RES GLU D 570
ENDMDL
MODEL 7
REMARK VINA RESULT:      -3.6      3.877      5.451
REMARK  3 active torsions:
REMARK  status: ('A' for Active; 'I' for Inactive)
REMARK    1  A    between atoms: C_2  and  C_3 
REMARK    2  A    between atoms: C_3  and  O_4 
REMARK    3  A    between atoms: C_3  and  O_5 
ROOT
HETATM    1  C   UNL     1     -30.150  -3.292 -17.498  1.00  0.00     0.253 C 
ENDROOT
BRANCH   1   2
HETATM    2  C   UNL     1     -29.369  -4.413 -18.175  1.00  0.00     0.056 C 
HETATM    3  C   UNL     1     -28.298  -4.984 -17.262  1.00  0.00     0.010 C 
ENDBRANCH   1   2
BRANCH   1   4
HETATM    4  O   UNL     1     -29.365  -2.117 -17.472  1.00  0.00    -0.372 OA
HETATM    5  H   UNL     1     -28.877  -2.144 -16.635  1.00  0.00     0.212 HD
ENDBRANCH   1   4
BRANCH   1   6
HETATM    6  O   UNL     1     -31.346  -3.018 -18.198  1.00  0.00    -0.372 OA
HETATM    7  H   UNL     1     -31.114  -2.453 -18.953  1.00  0.00     0.212 HD
ENDBRANCH   1   6
TORSDOF 3
BEGIN_RES ARG D 557
REMARK  4 active torsions:
REMARK  status: ('A' for Active; 'I' for Inactive)
REMARK    1  A    between atoms: CA   and  CB  
REMARK    2  A    between atoms: CB   and  CG  
REMARK    3  A    between atoms: CG   and  CD  
REMARK    4  A    between atoms: CD   and  NE  
REMARK       I    between atoms: NE   and  CZ  
REMARK       I    between atoms: CZ   and  NH1 
REMARK       I    between atoms: CZ   and  NH2 
ROOT
ATOM      1  CA  ARG D 557     -26.217   2.705 -17.014  1.00 35.49     0.159 C 
ENDROOT
BRANCH   1   2
ATOM      2  CB  ARG D 557     -26.789   1.319 -17.183  1.00 35.49     0.034 C 
BRANCH   2   3
ATOM      3  CG  ARG D 557     -25.865   0.195 -16.990  1.00 35.49     0.027 C 
BRANCH   3   4
ATOM      4  CD  ARG D 557     -26.303  -0.716 -15.907  1.00 35.49     0.116 C 
BRANCH   4   5
ATOM      5  NE  ARG D 557     -25.269  -0.934 -14.930  1.00 35.49    -0.212 N 
ATOM      6  CZ  ARG D 557     -24.989  -2.080 -14.351  1.00 35.49     0.666 C 
ATOM      7  NH1 ARG D 557     -25.663  -3.187 -14.605  1.00 35.49    -0.235 N 
ATOM      8  NH2 ARG D 557     -24.002  -2.099 -13.503  1.00 35.49    -0.235 N 
ATOM      9  HH  ARG D 557     -26.315  -3.198 -15.161  1.00 35.49     0.174 HD
ATOM     10  HH  ARG D 557     -25.434  -3.905 -14.199  1.00 35.49     0.174 HD
ATOM     11  HH  ARG D 557     -23.580  -1.371 -13.364  1.00 35.49     0.174 HD
ATOM     12  HH  ARG D 557     -23.789  -2.821 -13.112  1.00 35.49     0.174 HD
ATOM     13  HE  ARG D 557     -24.832  -0.259 -14.653  1.00 35.49     0.178 HD
ENDBRANCH   4   5
ENDBRANCH   3   4
ENDBRANCH   2   3
ENDBRANCH   1   2
END_RES ARG D 557
BEGIN_RES GLU D 570
REMARK  3 active torsions:
REMARK  status: ('A' for Active; 'I' for Inactive)
REMARK    5  A    between atoms: CA   and  CB  
REMARK    6  A    between atoms: CB   and  CG  
REMARK    7  A    between atoms: CG   and  CD  
ROOT
ATOM     14  CA  GLU D 570     -18.033  -6.348 -13.375  1.00 32.92     0.160 C 
ENDROOT
BRANCH  14  15
ATOM     15  CB  GLU D 570     -19.500  -6.345 -13.794  1.00 32.92     0.043 C 
BRANCH  15  16
ATOM     16  CG  GLU D 570     -20.450  -5.569 -12.955  1.00 32.92     0.100 C 
BRANCH  16  17
ATOM     17  CD  GLU D 570     -21.679  -5.126 -13.714  1.00 32.92     0.185 C 
ATOM     18  OE1 GLU D 570     -22.710  -4.832 -13.078  1.00 32.92    -0.647 OA
ATOM     19  OE2 GLU D 570     -21.616  -5.088 -14.958  1.00 32.92    -0.647 OA
ENDBRANCH  16  17
ENDBRANCH  15  16
ENDBRANCH  14  15
END_RES GLU D 570
ENDMDL
MODEL 8
REMARK VINA RESULT:      -3.5      9.449     11.216
REMARK  3 active torsions:
REMARK  status: ('A' for Active; 'I' for Inactive)
REMARK    1  A    between atoms: C_2  and  C_3 
REMARK    2  A    between atoms: C_3  and  O_4 
REMARK    3  A    between atoms: C_3  and  O_5 
ROOT
HETATM    1  C   UNL     1      -9.650   5.351 -19.199  1.00  0.00     0.253 C 
ENDROOT
BRANCH   1   2
HETATM    2  C   UNL     1     -11.094   5.260 -19.679  1.00  0.00     0.056 C 
HETATM    3  C   UNL     1     -11.498   3.828 -19.982  1.00  0.00     0.010 C 
ENDBRANCH   1   2
BRANCH   1   4
HETATM    4  O   UNL     1      -8.921   6.212 -20.050  1.00  0.00    -0.372 OA
HETATM    5  H   UNL     1      -9.581   6.763 -20.497  1.00  0.00     0.212 HD
ENDBRANCH   1   4
BRANCH   1   6
HETATM    6  O   UNL     1      -9.588   5.861 -17.883  1.00  0.00    -0.372 OA
HETATM    7  H   UNL     1      -9.879   6.787 -17.920  1.00  0.00     0.212 HD
ENDBRANCH   1   6
TORSDOF 3
BEGIN_RES ARG D 557
REMARK  4 active torsions:
REMARK  status: ('A' for Active; 'I' for Inactive)
REMARK    1  A    between atoms: CA   and  CB  
REMARK    2  A    between atoms: CB   and  CG  
REMARK    3  A    between atoms: CG   and  CD  
REMARK    4  A    between atoms: CD   and  NE  
REMARK       I    between atoms: NE   and  CZ  
REMARK       I    between atoms: CZ   and  NH1 
REMARK       I    between atoms: CZ   and  NH2 
ROOT
ATOM      1  CA  ARG D 557     -26.217   2.705 -17.014  1.00 35.49     0.159 C 
ENDROOT
BRANCH   1   2
ATOM      2  CB  ARG D 557     -26.789   1.319 -17.183  1.00 35.49     0.034 C 
BRANCH   2   3
ATOM      3  CG  ARG D 557     -25.834   0.204 -17.173  1.00 35.49     0.027 C 
BRANCH   3   4
ATOM      4  CD  ARG D 557     -24.742   0.405 -16.192  1.00 35.49     0.116 C 
BRANCH   4   5
ATOM      5  NE  ARG D 557     -24.896  -0.431 -15.031  1.00 35.49    -0.212 N 
ATOM      6  CZ  ARG D 557     -24.091  -1.408 -14.677  1.00 35.49     0.666 C 
ATOM      7  NH1 ARG D 557     -23.027  -1.742 -15.384  1.00 35.49    -0.235 N 
ATOM      8  NH2 ARG D 557     -24.372  -2.048 -13.579  1.00 35.49    -0.235 N 
ATOM      9  HH  ARG D 557     -22.822  -1.333 -16.108  1.00 35.49     0.174 HD
ATOM     10  HH  ARG D 557     -22.537  -2.386 -15.102  1.00 35.49     0.174 HD
ATOM     11  HH  ARG D 557     -25.061  -1.805 -13.139  1.00 35.49     0.174 HD
ATOM     12  HH  ARG D 557     -23.874  -2.682 -13.316  1.00 35.49     0.174 HD
ATOM     13  HE  ARG D 557     -25.595  -0.332 -14.557  1.00 35.49     0.178 HD
ENDBRANCH   4   5
ENDBRANCH   3   4
ENDBRANCH   2   3
ENDBRANCH   1   2
END_RES ARG D 557
BEGIN_RES GLU D 570
REMARK  3 active torsions:
REMARK  status: ('A' for Active; 'I' for Inactive)
REMARK    5  A    between atoms: CA   and  CB  
REMARK    6  A    between atoms: CB   and  CG  
REMARK    7  A    between atoms: CG   and  CD  
ROOT
ATOM     14  CA  GLU D 570     -18.033  -6.348 -13.375  1.00 32.92     0.160 C 
ENDROOT
BRANCH  14  15
ATOM     15  CB  GLU D 570     -19.500  -6.345 -13.794  1.00 32.92     0.043 C 
BRANCH  15  16
ATOM     16  CG  GLU D 570     -20.444  -5.539 -12.977  1.00 32.92     0.100 C 
BRANCH  16  17
ATOM     17  CD  GLU D 570     -21.741  -5.245 -13.693  1.00 32.92     0.185 C 
ATOM     18  OE1 GLU D 570     -22.162  -6.056 -14.540  1.00 32.92    -0.647 OA
ATOM     19  OE2 GLU D 570     -22.333  -4.183 -13.417  1.00 32.92    -0.647 OA
ENDBRANCH  16  17
ENDBRANCH  15  16
ENDBRANCH  14  15
END_RES GLU D 570
ENDMDL
MODEL 9
REMARK VINA RESULT:      -3.5      1.478      1.735
REMARK  3 active torsions:
REMARK  status: ('A' for Active; 'I' for Inactive)
REMARK    1  A    between atoms: C_2  and  C_3 
REMARK    2  A    between atoms: C_3  and  O_4 
REMARK    3  A    between atoms: C_3  and  O_5 
ROOT
HETATM    1  C   UNL     1     -24.502  -3.195  -9.425  1.00  0.00     0.253 C 
ENDROOT
BRANCH   1   2
HETATM    2  C   UNL     1     -23.658  -3.702 -10.589  1.00  0.00     0.056 C 
HETATM    3  C   UNL     1     -23.722  -5.214 -10.714  1.00  0.00     0.010 C 
ENDBRANCH   1   2
BRANCH   1   4
HETATM    4  O   UNL     1     -25.872  -3.323  -9.743  1.00  0.00    -0.372 OA
HETATM    5  H   UNL     1     -25.964  -3.000 -10.653  1.00  0.00     0.212 HD
ENDBRANCH   1   4
BRANCH   1   6
HETATM    6  O   UNL     1     -24.240  -3.938  -8.252  1.00  0.00    -0.372 OA
HETATM    7  H   UNL     1     -24.099  -3.301  -7.534  1.00  0.00     0.212 HD
ENDBRANCH   1   6
TORSDOF 3
BEGIN_RES ARG D 557
REMARK  4 active torsions:
REMARK  status: ('A' for Active; 'I' for Inactive)
REMARK    1  A    between atoms: CA   and  CB  
REMARK    2  A    between atoms: CB   and  CG  
REMARK    3  A    between atoms: CG   and  CD  
REMARK    4  A    between atoms: CD   and  NE  
REMARK       I    between atoms: NE   and  CZ  
REMARK       I    between atoms: CZ   and  NH1 
REMARK       I    between atoms: CZ   and  NH2 
ROOT
ATOM      1  CA  ARG D 557     -26.217   2.705 -17.014  1.00 35.49     0.159 C 
ENDROOT
BRANCH   1   2
ATOM      2  CB  ARG D 557     -26.789   1.319 -17.183  1.00 35.49     0.034 C 
BRANCH   2   3
ATOM      3  CG  ARG D 557     -25.839   0.201 -17.128  1.00 35.49     0.027 C 
BRANCH   3   4
ATOM      4  CD  ARG D 557     -24.737   0.444 -16.169  1.00 35.49     0.116 C 
BRANCH   4   5
ATOM      5  NE  ARG D 557     -24.823  -0.414 -15.016  1.00 35.49    -0.212 N 
ATOM      6  CZ  ARG D 557     -23.983  -1.378 -14.711  1.00 35.49     0.666 C 
ATOM      7  NH1 ARG D 557     -22.944  -1.678 -15.468  1.00 35.49    -0.235 N 
ATOM      8  NH2 ARG D 557     -24.204  -2.042 -13.614  1.00 35.49    -0.235 N 
ATOM      9  HH  ARG D 557     -22.779  -1.253 -16.193  1.00 35.49     0.174 HD
ATOM     10  HH  ARG D 557     -22.429  -2.315 -15.217  1.00 35.49     0.174 HD
ATOM     11  HH  ARG D 557     -24.879  -1.821 -13.141  1.00 35.49     0.174 HD
ATOM     12  HH  ARG D 557     -23.682  -2.668 -13.382  1.00 35.49     0.174 HD
ATOM     13  HE  ARG D 557     -25.504  -0.338 -14.511  1.00 35.49     0.178 HD
ENDBRANCH   4   5
ENDBRANCH   3   4
ENDBRANCH   2   3
ENDBRANCH   1   2
END_RES ARG D 557
BEGIN_RES GLU D 570
REMARK  3 active torsions:
REMARK  status: ('A' for Active; 'I' for Inactive)
REMARK    5  A    between atoms: CA   and  CB  
REMARK    6  A    between atoms: CB   and  CG  
REMARK    7  A    between atoms: CG   and  CD  
ROOT
ATOM     14  CA  GLU D 570     -18.033  -6.348 -13.375  1.00 32.92     0.160 C 
ENDROOT
BRANCH  14  15
ATOM     15  CB  GLU D 570     -19.500  -6.345 -13.794  1.00 32.92     0.043 C 
BRANCH  15  16
ATOM     16  CG  GLU D 570     -19.820  -5.867 -15.164  1.00 32.92     0.100 C 
BRANCH  16  17
ATOM     17  CD  GLU D 570     -21.299  -5.653 -15.383  1.00 32.92     0.185 C 
ATOM     18  OE1 GLU D 570     -22.080  -6.611 -15.224  1.00 32.92    -0.647 OA
ATOM     19  OE2 GLU D 570     -21.680  -4.519 -15.735  1.00 32.92    -0.647 OA
ENDBRANCH  16  17
ENDBRANCH  15  16
ENDBRANCH  14  15
END_RES GLU D 570
ENDMDL
