MODEL 1
REMARK VINA RESULT:      -5.3      0.000      0.000
REMARK  8 active torsions:
REMARK  status: ('A' for Active; 'I' for Inactive)
REMARK    1  A    between atoms: C_2  and  C_3 
REMARK    2  A    between atoms: C_3  and  C_4 
REMARK    3  A    between atoms: C_4  and  C_5 
REMARK    4  A    between atoms: C_5  and  C_6 
REMARK    5  A    between atoms: C_6  and  C_7 
REMARK    6  A    between atoms: C_7  and  C_8 
REMARK    7  A    between atoms: C_7  and  O_10 
REMARK    8  A    between atoms: C_8  and  O_9 
ROOT
HETATM    1  C   UNL     1     -22.623  -4.575  -9.838  1.00  0.00     0.034 C 
ENDROOT
BRANCH   1   2
HETATM    2  C   UNL     1     -21.184  -4.060  -9.845  1.00  0.00     0.002 C 
BRANCH   2   3
HETATM    3  C   UNL     1     -20.295  -4.780  -8.827  1.00  0.00     0.000 C 
BRANCH   3   4
HETATM    4  C   UNL     1     -20.175  -3.944  -7.552  1.00  0.00    -0.000 C 
BRANCH   4   5
HETATM    5  C   UNL     1     -20.506  -4.749  -6.298  1.00  0.00    -0.005 C 
HETATM    6  C   UNL     1     -21.001  -6.141  -6.663  1.00  0.00     0.005 C 
ENDBRANCH   4   5
ENDBRANCH   3   4
ENDBRANCH   2   3
ENDBRANCH   1   2
BRANCH   1   7
HETATM    7  C   UNL     1     -23.601  -3.624  -9.132  1.00  0.00     0.141 C 
BRANCH   7   8
HETATM    8  C   UNL     1     -24.951  -3.488  -9.847  1.00  0.00     0.195 C 
BRANCH   8   9
HETATM    9  O   UNL     1     -24.760  -3.249 -11.240  1.00  0.00    -0.398 OA
HETATM   10  H   UNL     1     -25.630  -2.987 -11.594  1.00  0.00     0.209 HD
ENDBRANCH   8   9
ENDBRANCH   7   8
BRANCH   7  11
HETATM   11  O   UNL     1     -23.845  -4.107  -7.803  1.00  0.00    -0.393 OA
HETATM   12  H   UNL     1     -24.809  -4.139  -7.666  1.00  0.00     0.210 HD
ENDBRANCH   7  11
ENDBRANCH   1   7
TORSDOF 8
BEGIN_RES ARG D 557
REMARK  4 active torsions:
REMARK  status: ('A' for Active; 'I' for Inactive)
REMARK    1  A    between atoms: CA   and  CB  
REMARK    2  A    between atoms: CB   and  CG  
REMARK    3  A    between atoms: CG   and  CD  
REMARK    4  A    between atoms: CD   and  NE  
REMARK       I    between atoms: NE   and  CZ  
REMARK       I    between atoms: CZ   and  NH1 
REMARK       I    between atoms: CZ   and  NH2 
ROOT
ATOM      1  CA  ARG D 557     -26.217   2.705 -17.014  1.00 35.49     0.159 C 
ENDROOT
BRANCH   1   2
ATOM      2  CB  ARG D 557     -26.789   1.319 -17.183  1.00 35.49     0.034 C 
BRANCH   2   3
ATOM      3  CG  ARG D 557     -25.857   0.196 -17.027  1.00 35.49     0.027 C 
BRANCH   3   4
ATOM      4  CD  ARG D 557     -26.169  -0.637 -15.843  1.00 35.49     0.116 C 
BRANCH   4   5
ATOM      5  NE  ARG D 557     -25.052  -0.738 -14.942  1.00 35.49    -0.212 N 
ATOM      6  CZ  ARG D 557     -24.649  -1.834 -14.338  1.00 35.49     0.666 C 
ATOM      7  NH1 ARG D 557     -25.260  -2.994 -14.492  1.00 35.49    -0.235 N 
ATOM      8  NH2 ARG D 557     -23.602  -1.746 -13.570  1.00 35.49    -0.235 N 
ATOM      9  HH  ARG D 557     -25.950  -3.075 -14.994  1.00 35.49     0.174 HD
ATOM     10  HH  ARG D 557     -24.951  -3.676 -14.075  1.00 35.49     0.174 HD
ATOM     11  HH  ARG D 557     -23.223  -0.986 -13.496  1.00 35.49     0.174 HD
ATOM     12  HH  ARG D 557     -23.310  -2.433 -13.167  1.00 35.49     0.174 HD
ATOM     13  HE  ARG D 557     -24.644  -0.023 -14.728  1.00 35.49     0.178 HD
ENDBRANCH   4   5
ENDBRANCH   3   4
ENDBRANCH   2   3
ENDBRANCH   1   2
END_RES ARG D 557
BEGIN_RES GLU D 570
REMARK  3 active torsions:
REMARK  status: ('A' for Active; 'I' for Inactive)
REMARK    5  A    between atoms: CA   and  CB  
REMARK    6  A    between atoms: CB   and  CG  
REMARK    7  A    between atoms: CG   and  CD  
ROOT
ATOM     14  CA  GLU D 570     -18.033  -6.348 -13.375  1.00 32.92     0.160 C 
ENDROOT
BRANCH  14  15
ATOM     15  CB  GLU D 570     -19.500  -6.345 -13.794  1.00 32.92     0.043 C 
BRANCH  15  16
ATOM     16  CG  GLU D 570     -20.433  -5.492 -13.014  1.00 32.92     0.100 C 
BRANCH  16  17
ATOM     17  CD  GLU D 570     -21.698  -5.158 -13.769  1.00 32.92     0.185 C 
ATOM     18  OE1 GLU D 570     -21.825  -5.556 -14.943  1.00 32.92    -0.647 OA
ATOM     19  OE2 GLU D 570     -22.564  -4.475 -13.187  1.00 32.92    -0.647 OA
ENDBRANCH  16  17
ENDBRANCH  15  16
ENDBRANCH  14  15
END_RES GLU D 570
ENDMDL
MODEL 2
REMARK VINA RESULT:      -5.2      3.006      4.065
REMARK  8 active torsions:
REMARK  status: ('A' for Active; 'I' for Inactive)
REMARK    1  A    between atoms: C_2  and  C_3 
REMARK    2  A    between atoms: C_3  and  C_4 
REMARK    3  A    between atoms: C_4  and  C_5 
REMARK    4  A    between atoms: C_5  and  C_6 
REMARK    5  A    between atoms: C_6  and  C_7 
REMARK    6  A    between atoms: C_7  and  C_8 
REMARK    7  A    between atoms: C_7  and  O_10 
REMARK    8  A    between atoms: C_8  and  O_9 
ROOT
HETATM    1  C   UNL     1     -22.952  -2.572 -12.990  1.00  0.00     0.034 C 
ENDROOT
BRANCH   1   2
HETATM    2  C   UNL     1     -23.700  -2.989 -11.723  1.00  0.00     0.002 C 
BRANCH   2   3
HETATM    3  C   UNL     1     -22.835  -3.823 -10.776  1.00  0.00     0.000 C 
BRANCH   3   4
HETATM    4  C   UNL     1     -21.645  -4.413 -11.534  1.00  0.00    -0.000 C 
BRANCH   4   5
HETATM    5  C   UNL     1     -20.332  -4.248 -10.771  1.00  0.00    -0.005 C 
HETATM    6  C   UNL     1     -20.570  -4.291  -9.269  1.00  0.00     0.005 C 
ENDBRANCH   4   5
ENDBRANCH   3   4
ENDBRANCH   2   3
ENDBRANCH   1   2
BRANCH   1   7
HETATM    7  C   UNL     1     -23.778  -2.769 -14.270  1.00  0.00     0.141 C 
BRANCH   7   8
HETATM    8  C   UNL     1     -25.192  -2.177 -14.187  1.00  0.00     0.195 C 
BRANCH   8   9
HETATM    9  O   UNL     1     -25.413  -1.254 -15.252  1.00  0.00    -0.398 OA
HETATM   10  H   UNL     1     -24.768  -1.480 -15.947  1.00  0.00     0.209 HD
ENDBRANCH   8   9
ENDBRANCH   7   8
BRANCH   7  11
HETATM   11  O   UNL     1     -23.096  -2.144 -15.367  1.00  0.00    -0.393 OA
HETATM   12  H   UNL     1     -23.710  -2.105 -16.121  1.00  0.00     0.210 HD
ENDBRANCH   7  11
ENDBRANCH   1   7
TORSDOF 8
BEGIN_RES ARG D 557
REMARK  4 active torsions:
REMARK  status: ('A' for Active; 'I' for Inactive)
REMARK    1  A    between atoms: CA   and  CB  
REMARK    2  A    between atoms: CB   and  CG  
REMARK    3  A    between atoms: CG   and  CD  
REMARK    4  A    between atoms: CD   and  NE  
REMARK       I    between atoms: NE   and  CZ  
REMARK       I    between atoms: CZ   and  NH1 
REMARK       I    between atoms: CZ   and  NH2 
ROOT
ATOM      1  CA  ARG D 557     -26.217   2.705 -17.014  1.00 35.49     0.159 C 
ENDROOT
BRANCH   1   2
ATOM      2  CB  ARG D 557     -26.789   1.319 -17.183  1.00 35.49     0.034 C 
BRANCH   2   3
ATOM      3  CG  ARG D 557     -28.172   1.116 -16.735  1.00 35.49     0.027 C 
BRANCH   3   4
ATOM      4  CD  ARG D 557     -28.735  -0.170 -17.206  1.00 35.49     0.116 C 
BRANCH   4   5
ATOM      5  NE  ARG D 557     -28.030  -1.302 -16.663  1.00 35.49    -0.212 N 
ATOM      6  CZ  ARG D 557     -28.338  -2.564 -16.858  1.00 35.49     0.666 C 
ATOM      7  NH1 ARG D 557     -29.374  -2.937 -17.587  1.00 35.49    -0.235 N 
ATOM      8  NH2 ARG D 557     -27.574  -3.461 -16.305  1.00 35.49    -0.235 N 
ATOM      9  HH  ARG D 557     -29.889  -2.364 -17.962  1.00 35.49     0.174 HD
ATOM     10  HH  ARG D 557     -29.524  -3.775 -17.681  1.00 35.49     0.174 HD
ATOM     11  HH  ARG D 557     -26.908  -3.191 -15.846  1.00 35.49     0.174 HD
ATOM     12  HH  ARG D 557     -27.739  -4.286 -16.412  1.00 35.49     0.174 HD
ATOM     13  HE  ARG D 557     -27.391  -1.152 -16.122  1.00 35.49     0.178 HD
ENDBRANCH   4   5
ENDBRANCH   3   4
ENDBRANCH   2   3
ENDBRANCH   1   2
END_RES ARG D 557
BEGIN_RES GLU D 570
REMARK  3 active torsions:
REMARK  status: ('A' for Active; 'I' for Inactive)
REMARK    5  A    between atoms: CA   and  CB  
REMARK    6  A    between atoms: CB   and  CG  
REMARK    7  A    between atoms: CG   and  CD  
ROOT
ATOM     14  CA  GLU D 570     -18.033  -6.348 -13.375  1.00 32.92     0.160 C 
ENDROOT
BRANCH  14  15
ATOM     15  CB  GLU D 570     -19.500  -6.345 -13.794  1.00 32.92     0.043 C 
BRANCH  15  16
ATOM     16  CG  GLU D 570     -19.819  -5.873 -15.166  1.00 32.92     0.100 C 
BRANCH  16  17
ATOM     17  CD  GLU D 570     -21.278  -5.521 -15.344  1.00 32.92     0.185 C 
ATOM     18  OE1 GLU D 570     -21.595  -4.674 -16.201  1.00 32.92    -0.647 OA
ATOM     19  OE2 GLU D 570     -22.110  -6.087 -14.608  1.00 32.92    -0.647 OA
ENDBRANCH  16  17
ENDBRANCH  15  16
ENDBRANCH  14  15
END_RES GLU D 570
ENDMDL
MODEL 3
REMARK VINA RESULT:      -5.1      7.002      9.213
REMARK  8 active torsions:
REMARK  status: ('A' for Active; 'I' for Inactive)
REMARK    1  A    between atoms: C_2  and  C_3 
REMARK    2  A    between atoms: C_3  and  C_4 
REMARK    3  A    between atoms: C_4  and  C_5 
REMARK    4  A    between atoms: C_5  and  C_6 
REMARK    5  A    between atoms: C_6  and  C_7 
REMARK    6  A    between atoms: C_7  and  C_8 
REMARK    7  A    between atoms: C_7  and  O_10 
REMARK    8  A    between atoms: C_8  and  O_9 
ROOT
HETATM    1  C   UNL     1     -34.390  -5.566 -10.320  1.00  0.00     0.034 C 
ENDROOT
BRANCH   1   2
HETATM    2  C   UNL     1     -34.341  -4.592 -11.498  1.00  0.00     0.002 C 
BRANCH   2   3
HETATM    3  C   UNL     1     -33.147  -3.638 -11.424  1.00  0.00     0.000 C 
BRANCH   3   4
HETATM    4  C   UNL     1     -33.530  -2.376 -10.649  1.00  0.00    -0.000 C 
BRANCH   4   5
HETATM    5  C   UNL     1     -34.921  -1.868 -11.021  1.00  0.00    -0.005 C 
HETATM    6  C   UNL     1     -34.865  -1.002 -12.271  1.00  0.00     0.005 C 
ENDBRANCH   4   5
ENDBRANCH   3   4
ENDBRANCH   2   3
ENDBRANCH   1   2
BRANCH   1   7
HETATM    7  C   UNL     1     -34.239  -7.034 -10.745  1.00  0.00     0.141 C 
BRANCH   7   8
HETATM    8  C   UNL     1     -34.539  -8.035  -9.621  1.00  0.00     0.195 C 
BRANCH   8   9
HETATM    9  O   UNL     1     -33.596  -9.104  -9.636  1.00  0.00    -0.398 OA
HETATM   10  H   UNL     1     -33.816  -9.673  -8.875  1.00  0.00     0.209 HD
ENDBRANCH   8   9
ENDBRANCH   7   8
BRANCH   7  11
HETATM   11  O   UNL     1     -35.137  -7.301 -11.832  1.00  0.00    -0.393 OA
HETATM   12  H   UNL     1     -35.681  -6.507 -11.976  1.00  0.00     0.210 HD
ENDBRANCH   7  11
ENDBRANCH   1   7
TORSDOF 8
BEGIN_RES ARG D 557
REMARK  4 active torsions:
REMARK  status: ('A' for Active; 'I' for Inactive)
REMARK    1  A    between atoms: CA   and  CB  
REMARK    2  A    between atoms: CB   and  CG  
REMARK    3  A    between atoms: CG   and  CD  
REMARK    4  A    between atoms: CD   and  NE  
REMARK       I    between atoms: NE   and  CZ  
REMARK       I    between atoms: CZ   and  NH1 
REMARK       I    between atoms: CZ   and  NH2 
ROOT
ATOM      1  CA  ARG D 557     -26.217   2.705 -17.014  1.00 35.49     0.159 C 
ENDROOT
BRANCH   1   2
ATOM      2  CB  ARG D 557     -26.789   1.319 -17.183  1.00 35.49     0.034 C 
BRANCH   2   3
ATOM      3  CG  ARG D 557     -25.834   0.204 -17.171  1.00 35.49     0.027 C 
BRANCH   3   4
ATOM      4  CD  ARG D 557     -24.741   0.408 -16.193  1.00 35.49     0.116 C 
BRANCH   4   5
ATOM      5  NE  ARG D 557     -24.888  -0.433 -15.033  1.00 35.49    -0.212 N 
ATOM      6  CZ  ARG D 557     -24.069  -1.396 -14.674  1.00 35.49     0.666 C 
ATOM      7  NH1 ARG D 557     -22.996  -1.712 -15.375  1.00 35.49    -0.235 N 
ATOM      8  NH2 ARG D 557     -24.347  -2.043 -13.580  1.00 35.49    -0.235 N 
ATOM      9  HH  ARG D 557     -22.793  -1.298 -16.098  1.00 35.49     0.174 HD
ATOM     10  HH  ARG D 557     -22.497  -2.348 -15.091  1.00 35.49     0.174 HD
ATOM     11  HH  ARG D 557     -25.042  -1.812 -13.144  1.00 35.49     0.174 HD
ATOM     12  HH  ARG D 557     -23.840  -2.668 -13.314  1.00 35.49     0.174 HD
ATOM     13  HE  ARG D 557     -25.592  -0.346 -14.564  1.00 35.49     0.178 HD
ENDBRANCH   4   5
ENDBRANCH   3   4
ENDBRANCH   2   3
ENDBRANCH   1   2
END_RES ARG D 557
BEGIN_RES GLU D 570
REMARK  3 active torsions:
REMARK  status: ('A' for Active; 'I' for Inactive)
REMARK    5  A    between atoms: CA   and  CB  
REMARK    6  A    between atoms: CB   and  CG  
REMARK    7  A    between atoms: CG   and  CD  
ROOT
ATOM     14  CA  GLU D 570     -18.033  -6.348 -13.375  1.00 32.92     0.160 C 
ENDROOT
BRANCH  14  15
ATOM     15  CB  GLU D 570     -19.500  -6.345 -13.794  1.00 32.92     0.043 C 
BRANCH  15  16
ATOM     16  CG  GLU D 570     -20.441  -5.528 -12.985  1.00 32.92     0.100 C 
BRANCH  16  17
ATOM     17  CD  GLU D 570     -21.742  -5.247 -13.700  1.00 32.92     0.185 C 
ATOM     18  OE1 GLU D 570     -22.299  -4.145 -13.533  1.00 32.92    -0.647 OA
ATOM     19  OE2 GLU D 570     -22.218  -6.146 -14.422  1.00 32.92    -0.647 OA
ENDBRANCH  16  17
ENDBRANCH  15  16
ENDBRANCH  14  15
END_RES GLU D 570
ENDMDL
MODEL 4
REMARK VINA RESULT:      -5.1      2.816      3.787
REMARK  8 active torsions:
REMARK  status: ('A' for Active; 'I' for Inactive)
REMARK    1  A    between atoms: C_2  and  C_3 
REMARK    2  A    between atoms: C_3  and  C_4 
REMARK    3  A    between atoms: C_4  and  C_5 
REMARK    4  A    between atoms: C_5  and  C_6 
REMARK    5  A    between atoms: C_6  and  C_7 
REMARK    6  A    between atoms: C_7  and  C_8 
REMARK    7  A    between atoms: C_7  and  O_10 
REMARK    8  A    between atoms: C_8  and  O_9 
ROOT
HETATM    1  C   UNL     1     -23.114  -2.594 -12.789  1.00  0.00     0.034 C 
ENDROOT
BRANCH   1   2
HETATM    2  C   UNL     1     -22.216  -3.737 -12.317  1.00  0.00     0.002 C 
BRANCH   2   3
HETATM    3  C   UNL     1     -21.114  -3.267 -11.365  1.00  0.00     0.000 C 
BRANCH   3   4
HETATM    4  C   UNL     1     -20.971  -4.250 -10.202  1.00  0.00    -0.000 C 
BRANCH   4   5
HETATM    5  C   UNL     1     -22.226  -4.307  -9.334  1.00  0.00    -0.005 C 
HETATM    6  C   UNL     1     -21.928  -3.836  -7.918  1.00  0.00     0.005 C 
ENDBRANCH   4   5
ENDBRANCH   3   4
ENDBRANCH   2   3
ENDBRANCH   1   2
BRANCH   1   7
HETATM    7  C   UNL     1     -23.442  -2.663 -14.288  1.00  0.00     0.141 C 
BRANCH   7   8
HETATM    8  C   UNL     1     -23.654  -1.289 -14.936  1.00  0.00     0.195 C 
BRANCH   8   9
HETATM    9  O   UNL     1     -24.916  -0.743 -14.554  1.00  0.00    -0.398 OA
HETATM   10  H   UNL     1     -25.482  -0.785 -15.347  1.00  0.00     0.209 HD
ENDBRANCH   8   9
ENDBRANCH   7   8
BRANCH   7  11
HETATM   11  O   UNL     1     -22.364  -3.318 -14.973  1.00  0.00    -0.393 OA
HETATM   12  H   UNL     1     -21.561  -2.782 -14.853  1.00  0.00     0.210 HD
ENDBRANCH   7  11
ENDBRANCH   1   7
TORSDOF 8
BEGIN_RES ARG D 557
REMARK  4 active torsions:
REMARK  status: ('A' for Active; 'I' for Inactive)
REMARK    1  A    between atoms: CA   and  CB  
REMARK    2  A    between atoms: CB   and  CG  
REMARK    3  A    between atoms: CG   and  CD  
REMARK    4  A    between atoms: CD   and  NE  
REMARK       I    between atoms: NE   and  CZ  
REMARK       I    between atoms: CZ   and  NH1 
REMARK       I    between atoms: CZ   and  NH2 
ROOT
ATOM      1  CA  ARG D 557     -26.217   2.705 -17.014  1.00 35.49     0.159 C 
ENDROOT
BRANCH   1   2
ATOM      2  CB  ARG D 557     -26.789   1.319 -17.183  1.00 35.49     0.034 C 
BRANCH   2   3
ATOM      3  CG  ARG D 557     -28.214   1.150 -16.872  1.00 35.49     0.027 C 
BRANCH   3   4
ATOM      4  CD  ARG D 557     -28.627  -0.272 -16.878  1.00 35.49     0.116 C 
BRANCH   4   5
ATOM      5  NE  ARG D 557     -27.687  -1.114 -16.186  1.00 35.49    -0.212 N 
ATOM      6  CZ  ARG D 557     -27.627  -2.424 -16.265  1.00 35.49     0.666 C 
ATOM      7  NH1 ARG D 557     -28.463  -3.130 -17.003  1.00 35.49    -0.235 N 
ATOM      8  NH2 ARG D 557     -26.694  -3.024 -15.584  1.00 35.49    -0.235 N 
ATOM      9  HH  ARG D 557     -29.083  -2.756 -17.461  1.00 35.49     0.174 HD
ATOM     10  HH  ARG D 557     -28.374  -3.982 -17.018  1.00 35.49     0.174 HD
ATOM     11  HH  ARG D 557     -26.163  -2.542 -15.121  1.00 35.49     0.174 HD
ATOM     12  HH  ARG D 557     -26.621  -3.868 -15.612  1.00 35.49     0.174 HD
ATOM     13  HE  ARG D 557     -27.157  -0.748 -15.631  1.00 35.49     0.178 HD
ENDBRANCH   4   5
ENDBRANCH   3   4
ENDBRANCH   2   3
ENDBRANCH   1   2
END_RES ARG D 557
BEGIN_RES GLU D 570
REMARK  3 active torsions:
REMARK  status: ('A' for Active; 'I' for Inactive)
REMARK    5  A    between atoms: CA   and  CB  
REMARK    6  A    between atoms: CB   and  CG  
REMARK    7  A    between atoms: CG   and  CD  
ROOT
ATOM     14  CA  GLU D 570     -18.033  -6.348 -13.375  1.00 32.92     0.160 C 
ENDROOT
BRANCH  14  15
ATOM     15  CB  GLU D 570     -19.500  -6.345 -13.794  1.00 32.92     0.043 C 
BRANCH  15  16
ATOM     16  CG  GLU D 570     -20.050  -7.599 -14.370  1.00 32.92     0.100 C 
BRANCH  16  17
ATOM     17  CD  GLU D 570     -21.162  -7.354 -15.363  1.00 32.92     0.185 C 
ATOM     18  OE1 GLU D 570     -21.256  -8.094 -16.362  1.00 32.92    -0.647 OA
ATOM     19  OE2 GLU D 570     -21.937  -6.401 -15.150  1.00 32.92    -0.647 OA
ENDBRANCH  16  17
ENDBRANCH  15  16
ENDBRANCH  14  15
END_RES GLU D 570
ENDMDL
MODEL 5
REMARK VINA RESULT:      -4.9      2.259      2.867
REMARK  8 active torsions:
REMARK  status: ('A' for Active; 'I' for Inactive)
REMARK    1  A    between atoms: C_2  and  C_3 
REMARK    2  A    between atoms: C_3  and  C_4 
REMARK    3  A    between atoms: C_4  and  C_5 
REMARK    4  A    between atoms: C_5  and  C_6 
REMARK    5  A    between atoms: C_6  and  C_7 
REMARK    6  A    between atoms: C_7  and  C_8 
REMARK    7  A    between atoms: C_7  and  O_10 
REMARK    8  A    between atoms: C_8  and  O_9 
ROOT
HETATM    1  C   UNL     1     -23.695  -4.755 -10.211  1.00  0.00     0.034 C 
ENDROOT
BRANCH   1   2
HETATM    2  C   UNL     1     -22.558  -4.701  -9.191  1.00  0.00     0.002 C 
BRANCH   2   3
HETATM    3  C   UNL     1     -21.332  -3.948  -9.714  1.00  0.00     0.000 C 
BRANCH   3   4
HETATM    4  C   UNL     1     -20.052  -4.655  -9.265  1.00  0.00    -0.000 C 
BRANCH   4   5
HETATM    5  C   UNL     1     -20.241  -5.420  -7.957  1.00  0.00    -0.005 C 
HETATM    6  C   UNL     1     -19.597  -4.676  -6.796  1.00  0.00     0.005 C 
ENDBRANCH   4   5
ENDBRANCH   3   4
ENDBRANCH   2   3
ENDBRANCH   1   2
BRANCH   1   7
HETATM    7  C   UNL     1     -24.327  -3.382 -10.484  1.00  0.00     0.141 C 
BRANCH   7   8
HETATM    8  C   UNL     1     -24.528  -3.081 -11.975  1.00  0.00     0.195 C 
BRANCH   8   9
HETATM    9  O   UNL     1     -23.519  -2.192 -12.448  1.00  0.00    -0.398 OA
HETATM   10  H   UNL     1     -22.693  -2.709 -12.481  1.00  0.00     0.209 HD
ENDBRANCH   8   9
ENDBRANCH   7   8
BRANCH   7  11
HETATM   11  O   UNL     1     -25.609  -3.321  -9.839  1.00  0.00    -0.393 OA
HETATM   12  H   UNL     1     -26.232  -3.862 -10.355  1.00  0.00     0.210 HD
ENDBRANCH   7  11
ENDBRANCH   1   7
TORSDOF 8
BEGIN_RES ARG D 557
REMARK  4 active torsions:
REMARK  status: ('A' for Active; 'I' for Inactive)
REMARK    1  A    between atoms: CA   and  CB  
REMARK    2  A    between atoms: CB   and  CG  
REMARK    3  A    between atoms: CG   and  CD  
REMARK    4  A    between atoms: CD   and  NE  
REMARK       I    between atoms: NE   and  CZ  
REMARK       I    between atoms: CZ   and  NH1 
REMARK       I    between atoms: CZ   and  NH2 
ROOT
ATOM      1  CA  ARG D 557     -26.217   2.705 -17.014  1.00 35.49     0.159 C 
ENDROOT
BRANCH   1   2
ATOM      2  CB  ARG D 557     -26.789   1.319 -17.183  1.00 35.49     0.034 C 
BRANCH   2   3
ATOM      3  CG  ARG D 557     -28.234   1.226 -17.425  1.00 35.49     0.027 C 
BRANCH   3   4
ATOM      4  CD  ARG D 557     -28.905   0.297 -16.486  1.00 35.49     0.116 C 
BRANCH   4   5
ATOM      5  NE  ARG D 557     -29.294  -0.932 -17.125  1.00 35.49    -0.212 N 
ATOM      6  CZ  ARG D 557     -28.660  -2.080 -17.031  1.00 35.49     0.666 C 
ATOM      7  NH1 ARG D 557     -27.553  -2.224 -16.326  1.00 35.49    -0.235 N 
ATOM      8  NH2 ARG D 557     -29.169  -3.099 -17.661  1.00 35.49    -0.235 N 
ATOM      9  HH  ARG D 557     -27.203  -1.567 -15.901  1.00 35.49     0.174 HD
ATOM     10  HH  ARG D 557     -27.186  -2.997 -16.299  1.00 35.49     0.174 HD
ATOM     11  HH  ARG D 557     -29.888  -2.979 -18.102  1.00 35.49     0.174 HD
ATOM     12  HH  ARG D 557     -28.790  -3.857 -17.620  1.00 35.49     0.174 HD
ATOM     13  HE  ARG D 557     -29.956  -0.914 -17.658  1.00 35.49     0.178 HD
ENDBRANCH   4   5
ENDBRANCH   3   4
ENDBRANCH   2   3
ENDBRANCH   1   2
END_RES ARG D 557
BEGIN_RES GLU D 570
REMARK  3 active torsions:
REMARK  status: ('A' for Active; 'I' for Inactive)
REMARK    5  A    between atoms: CA   and  CB  
REMARK    6  A    between atoms: CB   and  CG  
REMARK    7  A    between atoms: CG   and  CD  
ROOT
ATOM     14  CA  GLU D 570     -18.033  -6.348 -13.375  1.00 32.92     0.160 C 
ENDROOT
BRANCH  14  15
ATOM     15  CB  GLU D 570     -19.500  -6.345 -13.794  1.00 32.92     0.043 C 
BRANCH  15  16
ATOM     16  CG  GLU D 570     -20.434  -5.496 -13.010  1.00 32.92     0.100 C 
BRANCH  16  17
ATOM     17  CD  GLU D 570     -21.718  -5.197 -13.748  1.00 32.92     0.185 C 
ATOM     18  OE1 GLU D 570     -22.031  -4.010 -13.961  1.00 32.92    -0.647 OA
ATOM     19  OE2 GLU D 570     -22.428  -6.159 -14.101  1.00 32.92    -0.647 OA
ENDBRANCH  16  17
ENDBRANCH  15  16
ENDBRANCH  14  15
END_RES GLU D 570
ENDMDL
MODEL 6
REMARK VINA RESULT:      -4.9      7.177      9.501
REMARK  8 active torsions:
REMARK  status: ('A' for Active; 'I' for Inactive)
REMARK    1  A    between atoms: C_2  and  C_3 
REMARK    2  A    between atoms: C_3  and  C_4 
REMARK    3  A    between atoms: C_4  and  C_5 
REMARK    4  A    between atoms: C_5  and  C_6 
REMARK    5  A    between atoms: C_6  and  C_7 
REMARK    6  A    between atoms: C_7  and  C_8 
REMARK    7  A    between atoms: C_7  and  O_10 
REMARK    8  A    between atoms: C_8  and  O_9 
ROOT
HETATM    1  C   UNL     1     -34.759  -1.844 -12.216  1.00  0.00     0.034 C 
ENDROOT
BRANCH   1   2
HETATM    2  C   UNL     1     -33.783  -2.197 -11.094  1.00  0.00     0.002 C 
BRANCH   2   3
HETATM    3  C   UNL     1     -33.178  -3.593 -11.256  1.00  0.00     0.000 C 
BRANCH   3   4
HETATM    4  C   UNL     1     -33.975  -4.609 -10.434  1.00  0.00    -0.000 C 
BRANCH   4   5
HETATM    5  C   UNL     1     -34.145  -5.939 -11.165  1.00  0.00    -0.005 C 
HETATM    6  C   UNL     1     -34.629  -7.022 -10.211  1.00  0.00     0.005 C 
ENDBRANCH   4   5
ENDBRANCH   3   4
ENDBRANCH   2   3
ENDBRANCH   1   2
BRANCH   1   7
HETATM    7  C   UNL     1     -34.821  -0.338 -12.510  1.00  0.00     0.141 C 
BRANCH   7   8
HETATM    8  C   UNL     1     -35.402  -0.004 -13.891  1.00  0.00     0.195 C 
BRANCH   8   9
HETATM    9  O   UNL     1     -34.412   0.601 -14.720  1.00  0.00    -0.398 OA
HETATM   10  H   UNL     1     -34.371   0.064 -15.532  1.00  0.00     0.209 HD
ENDBRANCH   8   9
ENDBRANCH   7   8
BRANCH   7  11
HETATM   11  O   UNL     1     -35.637   0.300 -11.516  1.00  0.00    -0.393 OA
HETATM   12  H   UNL     1     -36.356   0.770 -11.973  1.00  0.00     0.210 HD
ENDBRANCH   7  11
ENDBRANCH   1   7
TORSDOF 8
BEGIN_RES ARG D 557
REMARK  4 active torsions:
REMARK  status: ('A' for Active; 'I' for Inactive)
REMARK    1  A    between atoms: CA   and  CB  
REMARK    2  A    between atoms: CB   and  CG  
REMARK    3  A    between atoms: CG   and  CD  
REMARK    4  A    between atoms: CD   and  NE  
REMARK       I    between atoms: NE   and  CZ  
REMARK       I    between atoms: CZ   and  NH1 
REMARK       I    between atoms: CZ   and  NH2 
ROOT
ATOM      1  CA  ARG D 557     -26.217   2.705 -17.014  1.00 35.49     0.159 C 
ENDROOT
BRANCH   1   2
ATOM      2  CB  ARG D 557     -26.789   1.319 -17.183  1.00 35.49     0.034 C 
BRANCH   2   3
ATOM      3  CG  ARG D 557     -28.231   1.226 -17.444  1.00 35.49     0.027 C 
BRANCH   3   4
ATOM      4  CD  ARG D 557     -28.916   0.308 -16.506  1.00 35.49     0.116 C 
BRANCH   4   5
ATOM      5  NE  ARG D 557     -29.285  -0.933 -17.135  1.00 35.49    -0.212 N 
ATOM      6  CZ  ARG D 557     -28.647  -2.075 -17.015  1.00 35.49     0.666 C 
ATOM      7  NH1 ARG D 557     -27.552  -2.203 -16.288  1.00 35.49    -0.235 N 
ATOM      8  NH2 ARG D 557     -29.137  -3.106 -17.641  1.00 35.49    -0.235 N 
ATOM      9  HH  ARG D 557     -27.214  -1.539 -15.866  1.00 35.49     0.174 HD
ATOM     10  HH  ARG D 557     -27.180  -2.973 -16.244  1.00 35.49     0.174 HD
ATOM     11  HH  ARG D 557     -29.849  -2.996 -18.097  1.00 35.49     0.174 HD
ATOM     12  HH  ARG D 557     -28.755  -3.861 -17.584  1.00 35.49     0.174 HD
ATOM     13  HE  ARG D 557     -29.938  -0.925 -17.681  1.00 35.49     0.178 HD
ENDBRANCH   4   5
ENDBRANCH   3   4
ENDBRANCH   2   3
ENDBRANCH   1   2
END_RES ARG D 557
BEGIN_RES GLU D 570
REMARK  3 active torsions:
REMARK  status: ('A' for Active; 'I' for Inactive)
REMARK    5  A    between atoms: CA   and  CB  
REMARK    6  A    between atoms: CB   and  CG  
REMARK    7  A    between atoms: CG   and  CD  
ROOT
ATOM     14  CA  GLU D 570     -18.033  -6.348 -13.375  1.00 32.92     0.160 C 
ENDROOT
BRANCH  14  15
ATOM     15  CB  GLU D 570     -19.500  -6.345 -13.794  1.00 32.92     0.043 C 
BRANCH  15  16
ATOM     16  CG  GLU D 570     -20.451  -5.573 -12.953  1.00 32.92     0.100 C 
BRANCH  16  17
ATOM     17  CD  GLU D 570     -21.692  -5.151 -13.703  1.00 32.92     0.185 C 
ATOM     18  OE1 GLU D 570     -21.650  -5.068 -14.945  1.00 32.92    -0.647 OA
ATOM     19  OE2 GLU D 570     -22.714  -4.883 -13.039  1.00 32.92    -0.647 OA
ENDBRANCH  16  17
ENDBRANCH  15  16
ENDBRANCH  14  15
END_RES GLU D 570
ENDMDL
MODEL 7
REMARK VINA RESULT:      -4.9      7.079      9.197
REMARK  8 active torsions:
REMARK  status: ('A' for Active; 'I' for Inactive)
REMARK    1  A    between atoms: C_2  and  C_3 
REMARK    2  A    between atoms: C_3  and  C_4 
REMARK    3  A    between atoms: C_4  and  C_5 
REMARK    4  A    between atoms: C_5  and  C_6 
REMARK    5  A    between atoms: C_6  and  C_7 
REMARK    6  A    between atoms: C_7  and  C_8 
REMARK    7  A    between atoms: C_7  and  O_10 
REMARK    8  A    between atoms: C_8  and  O_9 
ROOT
HETATM    1  C   UNL     1     -34.926  -2.104 -10.566  1.00  0.00     0.034 C 
ENDROOT
BRANCH   1   2
HETATM    2  C   UNL     1     -33.466  -2.317 -10.964  1.00  0.00     0.002 C 
BRANCH   2   3
HETATM    3  C   UNL     1     -33.145  -3.784 -11.261  1.00  0.00     0.000 C 
BRANCH   3   4
HETATM    4  C   UNL     1     -34.149  -4.695 -10.552  1.00  0.00    -0.000 C 
BRANCH   4   5
HETATM    5  C   UNL     1     -33.904  -6.172 -10.854  1.00  0.00    -0.005 C 
HETATM    6  C   UNL     1     -34.758  -7.057  -9.958  1.00  0.00     0.005 C 
ENDBRANCH   4   5
ENDBRANCH   3   4
ENDBRANCH   2   3
ENDBRANCH   1   2
BRANCH   1   7
HETATM    7  C   UNL     1     -35.642  -1.058 -11.434  1.00  0.00     0.141 C 
BRANCH   7   8
HETATM    8  C   UNL     1     -35.115  -0.990 -12.874  1.00  0.00     0.195 C 
BRANCH   8   9
HETATM    9  O   UNL     1     -34.821   0.358 -13.238  1.00  0.00    -0.398 OA
HETATM   10  H   UNL     1     -35.285   0.520 -14.080  1.00  0.00     0.209 HD
ENDBRANCH   8   9
ENDBRANCH   7   8
BRANCH   7  11
HETATM   11  O   UNL     1     -37.042  -1.372 -11.485  1.00  0.00    -0.393 OA
HETATM   12  H   UNL     1     -37.529  -0.547 -11.655  1.00  0.00     0.210 HD
ENDBRANCH   7  11
ENDBRANCH   1   7
TORSDOF 8
BEGIN_RES ARG D 557
REMARK  4 active torsions:
REMARK  status: ('A' for Active; 'I' for Inactive)
REMARK    1  A    between atoms: CA   and  CB  
REMARK    2  A    between atoms: CB   and  CG  
REMARK    3  A    between atoms: CG   and  CD  
REMARK    4  A    between atoms: CD   and  NE  
REMARK       I    between atoms: NE   and  CZ  
REMARK       I    between atoms: CZ   and  NH1 
REMARK       I    between atoms: CZ   and  NH2 
ROOT
ATOM      1  CA  ARG D 557     -26.217   2.705 -17.014  1.00 35.49     0.159 C 
ENDROOT
BRANCH   1   2
ATOM      2  CB  ARG D 557     -26.789   1.319 -17.183  1.00 35.49     0.034 C 
BRANCH   2   3
ATOM      3  CG  ARG D 557     -25.864   0.195 -16.994  1.00 35.49     0.027 C 
BRANCH   3   4
ATOM      4  CD  ARG D 557     -26.281  -0.698 -15.888  1.00 35.49     0.116 C 
BRANCH   4   5
ATOM      5  NE  ARG D 557     -25.220  -0.919 -14.940  1.00 35.49    -0.212 N 
ATOM      6  CZ  ARG D 557     -24.937  -2.062 -14.357  1.00 35.49     0.666 C 
ATOM      7  NH1 ARG D 557     -25.631  -3.163 -14.579  1.00 35.49    -0.235 N 
ATOM      8  NH2 ARG D 557     -23.925  -2.084 -13.539  1.00 35.49    -0.235 N 
ATOM      9  HH  ARG D 557     -26.300  -3.172 -15.115  1.00 35.49     0.174 HD
ATOM     10  HH  ARG D 557     -25.399  -3.880 -14.171  1.00 35.49     0.174 HD
ATOM     11  HH  ARG D 557     -23.490  -1.359 -13.421  1.00 35.49     0.174 HD
ATOM     12  HH  ARG D 557     -23.709  -2.804 -13.146  1.00 35.49     0.174 HD
ATOM     13  HE  ARG D 557     -24.768  -0.246 -14.684  1.00 35.49     0.178 HD
ENDBRANCH   4   5
ENDBRANCH   3   4
ENDBRANCH   2   3
ENDBRANCH   1   2
END_RES ARG D 557
BEGIN_RES GLU D 570
REMARK  3 active torsions:
REMARK  status: ('A' for Active; 'I' for Inactive)
REMARK    5  A    between atoms: CA   and  CB  
REMARK    6  A    between atoms: CB   and  CG  
REMARK    7  A    between atoms: CG   and  CD  
ROOT
ATOM     14  CA  GLU D 570     -18.033  -6.348 -13.375  1.00 32.92     0.160 C 
ENDROOT
BRANCH  14  15
ATOM     15  CB  GLU D 570     -19.500  -6.345 -13.794  1.00 32.92     0.043 C 
BRANCH  15  16
ATOM     16  CG  GLU D 570     -20.444  -5.539 -12.977  1.00 32.92     0.100 C 
BRANCH  16  17
ATOM     17  CD  GLU D 570     -21.683  -5.130 -13.739  1.00 32.92     0.185 C 
ATOM     18  OE1 GLU D 570     -22.744  -4.943 -13.113  1.00 32.92    -0.647 OA
ATOM     19  OE2 GLU D 570     -21.595  -5.013 -14.977  1.00 32.92    -0.647 OA
ENDBRANCH  16  17
ENDBRANCH  15  16
ENDBRANCH  14  15
END_RES GLU D 570
ENDMDL
MODEL 8
REMARK VINA RESULT:      -4.7      2.450      3.621
REMARK  8 active torsions:
REMARK  status: ('A' for Active; 'I' for Inactive)
REMARK    1  A    between atoms: C_2  and  C_3 
REMARK    2  A    between atoms: C_3  and  C_4 
REMARK    3  A    between atoms: C_4  and  C_5 
REMARK    4  A    between atoms: C_5  and  C_6 
REMARK    5  A    between atoms: C_6  and  C_7 
REMARK    6  A    between atoms: C_7  and  C_8 
REMARK    7  A    between atoms: C_7  and  O_10 
REMARK    8  A    between atoms: C_8  and  O_9 
ROOT
HETATM    1  C   UNL     1     -22.844  -2.963 -11.857  1.00  0.00     0.034 C 
ENDROOT
BRANCH   1   2
HETATM    2  C   UNL     1     -24.121  -3.284 -11.080  1.00  0.00     0.002 C 
BRANCH   2   3
HETATM    3  C   UNL     1     -23.869  -4.212  -9.889  1.00  0.00     0.000 C 
BRANCH   3   4
HETATM    4  C   UNL     1     -22.729  -3.664  -9.029  1.00  0.00    -0.000 C 
BRANCH   4   5
HETATM    5  C   UNL     1     -21.662  -4.717  -8.742  1.00  0.00    -0.005 C 
HETATM    6  C   UNL     1     -20.350  -4.360  -9.425  1.00  0.00     0.005 C 
ENDBRANCH   4   5
ENDBRANCH   3   4
ENDBRANCH   2   3
ENDBRANCH   1   2
BRANCH   1   7
HETATM    7  C   UNL     1     -23.104  -2.640 -13.336  1.00  0.00     0.141 C 
BRANCH   7   8
HETATM    8  C   UNL     1     -23.078  -3.874 -14.248  1.00  0.00     0.195 C 
BRANCH   8   9
HETATM    9  O   UNL     1     -22.079  -3.733 -15.256  1.00  0.00    -0.398 OA
HETATM   10  H   UNL     1     -22.521  -3.910 -16.106  1.00  0.00     0.209 HD
ENDBRANCH   8   9
ENDBRANCH   7   8
BRANCH   7  11
HETATM   11  O   UNL     1     -24.392  -2.020 -13.460  1.00  0.00    -0.393 OA
HETATM   12  H   UNL     1     -25.059  -2.638 -13.114  1.00  0.00     0.210 HD
ENDBRANCH   7  11
ENDBRANCH   1   7
TORSDOF 8
BEGIN_RES ARG D 557
REMARK  4 active torsions:
REMARK  status: ('A' for Active; 'I' for Inactive)
REMARK    1  A    between atoms: CA   and  CB  
REMARK    2  A    between atoms: CB   and  CG  
REMARK    3  A    between atoms: CG   and  CD  
REMARK    4  A    between atoms: CD   and  NE  
REMARK       I    between atoms: NE   and  CZ  
REMARK       I    between atoms: CZ   and  NH1 
REMARK       I    between atoms: CZ   and  NH2 
ROOT
ATOM      1  CA  ARG D 557     -26.217   2.705 -17.014  1.00 35.49     0.159 C 
ENDROOT
BRANCH   1   2
ATOM      2  CB  ARG D 557     -26.789   1.319 -17.183  1.00 35.49     0.034 C 
BRANCH   2   3
ATOM      3  CG  ARG D 557     -28.226   1.162 -16.929  1.00 35.49     0.027 C 
BRANCH   3   4
ATOM      4  CD  ARG D 557     -28.613  -0.254 -16.732  1.00 35.49     0.116 C 
BRANCH   4   5
ATOM      5  NE  ARG D 557     -27.609  -0.996 -16.017  1.00 35.49    -0.212 N 
ATOM      6  CZ  ARG D 557     -27.420  -2.295 -16.084  1.00 35.49     0.666 C 
ATOM      7  NH1 ARG D 557     -28.170  -3.083 -16.832  1.00 35.49    -0.235 N 
ATOM      8  NH2 ARG D 557     -26.446  -2.797 -15.381  1.00 35.49    -0.235 N 
ATOM      9  HH  ARG D 557     -28.815  -2.774 -17.304  1.00 35.49     0.174 HD
ATOM     10  HH  ARG D 557     -27.999  -3.922 -16.838  1.00 35.49     0.174 HD
ATOM     11  HH  ARG D 557     -25.974  -2.264 -14.913  1.00 35.49     0.174 HD
ATOM     12  HH  ARG D 557     -26.292  -3.631 -15.402  1.00 35.49     0.174 HD
ATOM     13  HE  ARG D 557     -27.127  -0.577 -15.455  1.00 35.49     0.178 HD
ENDBRANCH   4   5
ENDBRANCH   3   4
ENDBRANCH   2   3
ENDBRANCH   1   2
END_RES ARG D 557
BEGIN_RES GLU D 570
REMARK  3 active torsions:
REMARK  status: ('A' for Active; 'I' for Inactive)
REMARK    5  A    between atoms: CA   and  CB  
REMARK    6  A    between atoms: CB   and  CG  
REMARK    7  A    between atoms: CG   and  CD  
ROOT
ATOM     14  CA  GLU D 570     -18.033  -6.348 -13.375  1.00 32.92     0.160 C 
ENDROOT
BRANCH  14  15
ATOM     15  CB  GLU D 570     -19.500  -6.345 -13.794  1.00 32.92     0.043 C 
BRANCH  15  16
ATOM     16  CG  GLU D 570     -19.796  -6.342 -15.250  1.00 32.92     0.100 C 
BRANCH  16  17
ATOM     17  CD  GLU D 570     -20.929  -7.269 -15.623  1.00 32.92     0.185 C 
ATOM     18  OE1 GLU D 570     -22.032  -6.781 -15.938  1.00 32.92    -0.647 OA
ATOM     19  OE2 GLU D 570     -20.717  -8.497 -15.584  1.00 32.92    -0.647 OA
ENDBRANCH  16  17
ENDBRANCH  15  16
ENDBRANCH  14  15
END_RES GLU D 570
ENDMDL
MODEL 9
REMARK VINA RESULT:      -4.4      2.446      3.113
REMARK  8 active torsions:
REMARK  status: ('A' for Active; 'I' for Inactive)
REMARK    1  A    between atoms: C_2  and  C_3 
REMARK    2  A    between atoms: C_3  and  C_4 
REMARK    3  A    between atoms: C_4  and  C_5 
REMARK    4  A    between atoms: C_5  and  C_6 
REMARK    5  A    between atoms: C_6  and  C_7 
REMARK    6  A    between atoms: C_7  and  C_8 
REMARK    7  A    between atoms: C_7  and  O_10 
REMARK    8  A    between atoms: C_8  and  O_9 
ROOT
HETATM    1  C   UNL     1     -21.228  -3.844  -7.349  1.00  0.00     0.034 C 
ENDROOT
BRANCH   1   2
HETATM    2  C   UNL     1     -20.472  -5.145  -7.618  1.00  0.00     0.002 C 
BRANCH   2   3
HETATM    3  C   UNL     1     -20.805  -6.241  -6.604  1.00  0.00     0.000 C 
BRANCH   3   4
HETATM    4  C   UNL     1     -20.916  -5.642  -5.201  1.00  0.00    -0.000 C 
BRANCH   4   5
HETATM    5  C   UNL     1     -21.776  -6.496  -4.272  1.00  0.00    -0.005 C 
HETATM    6  C   UNL     1     -21.498  -6.160  -2.814  1.00  0.00     0.005 C 
ENDBRANCH   4   5
ENDBRANCH   3   4
ENDBRANCH   2   3
ENDBRANCH   1   2
BRANCH   1   7
HETATM    7  C   UNL     1     -22.491  -3.691  -8.209  1.00  0.00     0.141 C 
BRANCH   7   8
HETATM    8  C   UNL     1     -22.389  -4.377  -9.578  1.00  0.00     0.195 C 
BRANCH   8   9
HETATM    9  O   UNL     1     -22.078  -3.425 -10.594  1.00  0.00    -0.398 OA
HETATM   10  H   UNL     1     -21.922  -3.937 -11.409  1.00  0.00     0.209 HD
ENDBRANCH   8   9
ENDBRANCH   7   8
BRANCH   7  11
HETATM   11  O   UNL     1     -23.607  -4.260  -7.507  1.00  0.00    -0.393 OA
HETATM   12  H   UNL     1     -24.245  -3.547  -7.329  1.00  0.00     0.210 HD
ENDBRANCH   7  11
ENDBRANCH   1   7
TORSDOF 8
BEGIN_RES ARG D 557
REMARK  4 active torsions:
REMARK  status: ('A' for Active; 'I' for Inactive)
REMARK    1  A    between atoms: CA   and  CB  
REMARK    2  A    between atoms: CB   and  CG  
REMARK    3  A    between atoms: CG   and  CD  
REMARK    4  A    between atoms: CD   and  NE  
REMARK       I    between atoms: NE   and  CZ  
REMARK       I    between atoms: CZ   and  NH1 
REMARK       I    between atoms: CZ   and  NH2 
ROOT
ATOM      1  CA  ARG D 557     -26.217   2.705 -17.014  1.00 35.49     0.159 C 
ENDROOT
BRANCH   1   2
ATOM      2  CB  ARG D 557     -26.789   1.319 -17.183  1.00 35.49     0.034 C 
BRANCH   2   3
ATOM      3  CG  ARG D 557     -28.234   1.226 -17.427  1.00 35.49     0.027 C 
BRANCH   3   4
ATOM      4  CD  ARG D 557     -28.906   0.299 -16.487  1.00 35.49     0.116 C 
BRANCH   4   5
ATOM      5  NE  ARG D 557     -29.295  -0.931 -17.124  1.00 35.49    -0.212 N 
ATOM      6  CZ  ARG D 557     -28.660  -2.078 -17.032  1.00 35.49     0.666 C 
ATOM      7  NH1 ARG D 557     -27.550  -2.220 -16.331  1.00 35.49    -0.235 N 
ATOM      8  NH2 ARG D 557     -29.169  -3.098 -17.661  1.00 35.49    -0.235 N 
ATOM      9  HH  ARG D 557     -27.199  -1.563 -15.908  1.00 35.49     0.174 HD
ATOM     10  HH  ARG D 557     -27.181  -2.993 -16.305  1.00 35.49     0.174 HD
ATOM     11  HH  ARG D 557     -29.890  -2.979 -18.100  1.00 35.49     0.174 HD
ATOM     12  HH  ARG D 557     -28.789  -3.855 -17.621  1.00 35.49     0.174 HD
ATOM     13  HE  ARG D 557     -29.959  -0.913 -17.655  1.00 35.49     0.178 HD
ENDBRANCH   4   5
ENDBRANCH   3   4
ENDBRANCH   2   3
ENDBRANCH   1   2
END_RES ARG D 557
BEGIN_RES GLU D 570
REMARK  3 active torsions:
REMARK  status: ('A' for Active; 'I' for Inactive)
REMARK    5  A    between atoms: CA   and  CB  
REMARK    6  A    between atoms: CB   and  CG  
REMARK    7  A    between atoms: CG   and  CD  
ROOT
ATOM     14  CA  GLU D 570     -18.033  -6.348 -13.375  1.00 32.92     0.160 C 
ENDROOT
BRANCH  14  15
ATOM     15  CB  GLU D 570     -19.500  -6.345 -13.794  1.00 32.92     0.043 C 
BRANCH  15  16
ATOM     16  CG  GLU D 570     -20.441  -5.529 -12.985  1.00 32.92     0.100 C 
BRANCH  16  17
ATOM     17  CD  GLU D 570     -21.722  -5.206 -13.718  1.00 32.92     0.185 C 
ATOM     18  OE1 GLU D 570     -22.085  -5.943 -14.655  1.00 32.92    -0.647 OA
ATOM     19  OE2 GLU D 570     -22.361  -4.196 -13.363  1.00 32.92    -0.647 OA
ENDBRANCH  16  17
ENDBRANCH  15  16
ENDBRANCH  14  15
END_RES GLU D 570
ENDMDL
