MODEL 1
REMARK VINA RESULT:      -6.5      0.000      0.000
REMARK  27 active torsions:
REMARK  status: ('A' for Active; 'I' for Inactive)
REMARK    1  A    between atoms: C_2  and  C_3 
REMARK    2  A    between atoms: C_3  and  C_4 
REMARK    3  A    between atoms: C_4  and  C_5 
REMARK    4  A    between atoms: C_5  and  C_6 
REMARK    5  A    between atoms: C_6  and  C_7 
REMARK    6  A    between atoms: C_7  and  C_8 
REMARK    7  A    between atoms: C_8  and  C_9 
REMARK    8  A    between atoms: C_9  and  C_10 
REMARK    9  A    between atoms: C_10  and  C_11 
REMARK   10  A    between atoms: C_11  and  C_12 
REMARK   11  A    between atoms: C_12  and  C_13 
REMARK   12  A    between atoms: C_13  and  C_14 
REMARK   13  A    between atoms: C_14  and  C_15 
REMARK   14  A    between atoms: C_15  and  C_16 
REMARK   15  A    between atoms: C_16  and  O_17 
REMARK   16  A    between atoms: O_17  and  C_18 
REMARK   17  A    between atoms: C_18  and  C_20 
REMARK   18  A    between atoms: C_20  and  C_21 
REMARK   19  A    between atoms: C_20  and  N_29 
REMARK   20  A    between atoms: C_21  and  C_22 
REMARK   21  A    between atoms: C_22  and  C_23 
REMARK   22  A    between atoms: C_23  and  N_24 
REMARK       I    between atoms: N_24  and  C_26 
REMARK       I    between atoms: C_26  and  N_27 
REMARK       I    between atoms: N_29  and  C_30 
REMARK   23  A    between atoms: C_30  and  C_32 
REMARK   24  A    between atoms: C_32  and  C_33 
REMARK   25  A    between atoms: C_32  and  N_41 
REMARK   26  A    between atoms: C_33  and  C_34 
REMARK   27  A    between atoms: C_37  and  O_40 
REMARK       I    between atoms: N_41  and  C_42 
ROOT
HETATM    1  C   UNL     1     -23.695  -6.244 -15.652  1.00  0.00     0.184 C 
ENDROOT
BRANCH   1   2
HETATM    2  C   UNL     1     -23.251  -5.292 -14.509  1.00  0.00     0.281 C 
HETATM    3  O   UNL     1     -22.532  -4.330 -14.656  1.00  0.00    -0.263 OA
BRANCH   2   4
HETATM    4  O   UNL     1     -23.762  -5.708 -13.305  1.00  0.00    -0.320 OA
BRANCH   4   5
HETATM    5  C   UNL     1     -23.933  -4.677 -12.318  1.00  0.00     0.178 C 
BRANCH   5   6
HETATM    6  C   UNL     1     -23.654  -5.204 -10.913  1.00  0.00     0.027 C 
BRANCH   6   7
HETATM    7  C   UNL     1     -24.418  -4.403  -9.862  1.00  0.00     0.002 C 
BRANCH   7   8
HETATM    8  C   UNL     1     -23.462  -3.664  -8.937  1.00  0.00     0.000 C 
BRANCH   8   9
HETATM    9  C   UNL     1     -22.395  -4.612  -8.412  1.00  0.00     0.000 C 
BRANCH   9  10
HETATM   10  C   UNL     1     -21.038  -3.927  -8.408  1.00  0.00     0.000 C 
BRANCH  10  11
HETATM   11  C   UNL     1     -20.154  -4.526  -7.329  1.00  0.00     0.000 C 
BRANCH  11  12
HETATM   12  C   UNL     1     -20.947  -4.703  -6.047  1.00  0.00     0.000 C 
BRANCH  12  13
HETATM   13  C   UNL     1     -20.619  -6.042  -5.415  1.00  0.00     0.000 C 
BRANCH  13  14
HETATM   14  C   UNL     1     -21.900  -6.748  -5.008  1.00  0.00     0.000 C 
BRANCH  14  15
HETATM   15  C   UNL     1     -21.596  -7.809  -3.966  1.00  0.00     0.000 C 
BRANCH  15  16
HETATM   16  C   UNL     1     -20.962  -7.170  -2.744  1.00  0.00     0.000 C 
BRANCH  16  17
HETATM   17  C   UNL     1     -21.990  -6.332  -2.002  1.00  0.00     0.000 C 
BRANCH  17  18
HETATM   18  C   UNL     1     -22.496  -7.085  -0.783  1.00  0.00    -0.000 C 
BRANCH  18  19
HETATM   19  C   UNL     1     -21.463  -8.101  -0.318  1.00  0.00    -0.005 C 
HETATM   20  C   UNL     1     -21.515  -8.253   1.189  1.00  0.00     0.005 C 
ENDBRANCH  18  19
ENDBRANCH  17  18
ENDBRANCH  16  17
ENDBRANCH  15  16
ENDBRANCH  14  15
ENDBRANCH  13  14
ENDBRANCH  12  13
ENDBRANCH  11  12
ENDBRANCH  10  11
ENDBRANCH   9  10
ENDBRANCH   8   9
ENDBRANCH   7   8
ENDBRANCH   6   7
ENDBRANCH   5   6
ENDBRANCH   4   5
ENDBRANCH   2   4
ENDBRANCH   1   2
BRANCH   1  21
HETATM   21  C   UNL     1     -22.868  -7.554 -15.588  1.00  0.00     0.037 C 
BRANCH  21  22
HETATM   22  C   UNL     1     -21.707  -7.579 -16.586  1.00  0.00     0.023 C 
BRANCH  22  23
HETATM   23  C   UNL     1     -21.987  -6.698 -17.796  1.00  0.00     0.138 C 
BRANCH  23  24
HETATM   24  N   UNL     1     -21.632  -7.461 -19.005  1.00  0.00    -0.227 N 
HETATM   25  C   UNL     1     -22.608  -7.853 -19.739  1.00  0.00     0.665 C 
HETATM   26  N   UNL     1     -23.926  -7.623 -19.562  1.00  0.00    -0.235 N 
HETATM   27  N   UNL     1     -22.401  -8.592 -20.843  1.00  0.00    -0.235 N 
HETATM   28  H   UNL     1     -24.251  -7.146 -18.730  1.00  0.00     0.174 HD
HETATM   29  H   UNL     1     -24.648  -7.972 -20.159  1.00  0.00     0.174 HD
HETATM   30  H   UNL     1     -21.444  -8.807 -21.091  1.00  0.00     0.174 HD
HETATM   31  H   UNL     1     -23.141  -8.897 -21.452  1.00  0.00     0.174 HD
ATOM     32  HN  UNL     1     -20.663  -7.665 -19.245  1.00  0.00     0.177 HD
ENDBRANCH  23  24
ENDBRANCH  22  23
ENDBRANCH  21  22
ENDBRANCH   1  21
BRANCH   1  33
HETATM   33  N   UNL     1     -25.126  -6.591 -15.568  1.00  0.00    -0.345 N 
HETATM   34  C   UNL     1     -25.985  -6.548 -16.635  1.00  0.00     0.241 C 
HETATM   35  O   UNL     1     -25.623  -6.271 -17.792  1.00  0.00    -0.271 OA
HETATM   36  H   UNL     1     -25.483  -6.830 -14.642  1.00  0.00     0.163 HD
BRANCH  34  37
HETATM   37  C   UNL     1     -27.448  -7.008 -16.367  1.00  0.00     0.180 C 
BRANCH  37  38
HETATM   38  C   UNL     1     -28.094  -6.003 -15.385  1.00  0.00     0.073 C 
BRANCH  38  39
HETATM   39  C   UNL     1     -28.351  -4.633 -15.972  1.00  0.00    -0.056 A 
HETATM   40  C   UNL     1     -27.444  -3.580 -15.793  1.00  0.00     0.010 A 
HETATM   41  C   UNL     1     -27.698  -2.326 -16.355  1.00  0.00     0.037 A 
HETATM   42  C   UNL     1     -28.866  -2.131 -17.091  1.00  0.00     0.065 A 
HETATM   43  C   UNL     1     -29.785  -3.155 -17.260  1.00  0.00     0.037 A 
HETATM   44  C   UNL     1     -29.524  -4.408 -16.714  1.00  0.00     0.010 A 
BRANCH  42  45
HETATM   45  O   UNL     1     -29.152  -0.941 -17.692  1.00  0.00    -0.361 OA
HETATM   46  H   UNL     1     -28.338  -0.582 -18.078  1.00  0.00     0.217 HD
ENDBRANCH  42  45
ENDBRANCH  38  39
ENDBRANCH  37  38
BRANCH  37  47
HETATM   47  N   UNL     1     -28.249  -7.098 -17.605  1.00  0.00    -0.348 N 
HETATM   48  C   UNL     1     -29.420  -7.809 -17.666  1.00  0.00     0.214 C 
HETATM   49  O   UNL     1     -29.823  -8.494 -16.733  1.00  0.00    -0.274 OA
HETATM   50  C   UNL     1     -30.167  -7.737 -18.981  1.00  0.00     0.117 C 
HETATM   51  H   UNL     1     -27.955  -6.546 -18.403  1.00  0.00     0.163 HD
ENDBRANCH  37  47
ENDBRANCH  34  37
ENDBRANCH   1  33
TORSDOF 27
BEGIN_RES ARG D 557
REMARK  4 active torsions:
REMARK  status: ('A' for Active; 'I' for Inactive)
REMARK    1  A    between atoms: CA   and  CB  
REMARK    2  A    between atoms: CB   and  CG  
REMARK    3  A    between atoms: CG   and  CD  
REMARK    4  A    between atoms: CD   and  NE  
REMARK       I    between atoms: NE   and  CZ  
REMARK       I    between atoms: CZ   and  NH1 
REMARK       I    between atoms: CZ   and  NH2 
ROOT
ATOM      1  CA  ARG D 557     -26.217   2.705 -17.014  1.00 35.49     0.159 C 
ENDROOT
BRANCH   1   2
ATOM      2  CB  ARG D 557     -26.789   1.319 -17.183  1.00 35.49     0.034 C 
BRANCH   2   3
ATOM      3  CG  ARG D 557     -25.833   0.205 -17.181  1.00 35.49     0.027 C 
BRANCH   3   4
ATOM      4  CD  ARG D 557     -24.673   0.458 -16.296  1.00 35.49     0.116 C 
BRANCH   4   5
ATOM      5  NE  ARG D 557     -24.736  -0.318 -15.085  1.00 35.49    -0.212 N 
ATOM      6  CZ  ARG D 557     -23.902  -1.274 -14.742  1.00 35.49     0.666 C 
ATOM      7  NH1 ARG D 557     -22.892  -1.643 -15.508  1.00 35.49    -0.235 N 
ATOM      8  NH2 ARG D 557     -24.097  -1.857 -13.595  1.00 35.49    -0.235 N 
ATOM      9  HH  ARG D 557     -22.743  -1.271 -16.265  1.00 35.49     0.174 HD
ATOM     10  HH  ARG D 557     -22.379  -2.271 -15.230  1.00 35.49     0.174 HD
ATOM     11  HH  ARG D 557     -24.753  -1.593 -13.118  1.00 35.49     0.174 HD
ATOM     12  HH  ARG D 557     -23.578  -2.476 -13.337  1.00 35.49     0.174 HD
ATOM     13  HE  ARG D 557     -25.398  -0.196 -14.566  1.00 35.49     0.178 HD
ENDBRANCH   4   5
ENDBRANCH   3   4
ENDBRANCH   2   3
ENDBRANCH   1   2
END_RES ARG D 557
BEGIN_RES GLU D 570
REMARK  3 active torsions:
REMARK  status: ('A' for Active; 'I' for Inactive)
REMARK    5  A    between atoms: CA   and  CB  
REMARK    6  A    between atoms: CB   and  CG  
REMARK    7  A    between atoms: CG   and  CD  
ROOT
ATOM     14  CA  GLU D 570     -18.033  -6.348 -13.375  1.00 32.92     0.160 C 
ENDROOT
BRANCH  14  15
ATOM     15  CB  GLU D 570     -19.500  -6.345 -13.794  1.00 32.92     0.043 C 
BRANCH  15  16
ATOM     16  CG  GLU D 570     -20.513  -6.093 -12.737  1.00 32.92     0.100 C 
BRANCH  16  17
ATOM     17  CD  GLU D 570     -20.107  -4.996 -11.781  1.00 32.92     0.185 C 
ATOM     18  OE1 GLU D 570     -19.328  -5.265 -10.847  1.00 32.92    -0.647 OA
ATOM     19  OE2 GLU D 570     -20.587  -3.859 -11.958  1.00 32.92    -0.647 OA
ENDBRANCH  16  17
ENDBRANCH  15  16
ENDBRANCH  14  15
END_RES GLU D 570
ENDMDL
MODEL 2
REMARK VINA RESULT:      -6.5      5.088     11.656
REMARK  27 active torsions:
REMARK  status: ('A' for Active; 'I' for Inactive)
REMARK    1  A    between atoms: C_2  and  C_3 
REMARK    2  A    between atoms: C_3  and  C_4 
REMARK    3  A    between atoms: C_4  and  C_5 
REMARK    4  A    between atoms: C_5  and  C_6 
REMARK    5  A    between atoms: C_6  and  C_7 
REMARK    6  A    between atoms: C_7  and  C_8 
REMARK    7  A    between atoms: C_8  and  C_9 
REMARK    8  A    between atoms: C_9  and  C_10 
REMARK    9  A    between atoms: C_10  and  C_11 
REMARK   10  A    between atoms: C_11  and  C_12 
REMARK   11  A    between atoms: C_12  and  C_13 
REMARK   12  A    between atoms: C_13  and  C_14 
REMARK   13  A    between atoms: C_14  and  C_15 
REMARK   14  A    between atoms: C_15  and  C_16 
REMARK   15  A    between atoms: C_16  and  O_17 
REMARK   16  A    between atoms: O_17  and  C_18 
REMARK   17  A    between atoms: C_18  and  C_20 
REMARK   18  A    between atoms: C_20  and  C_21 
REMARK   19  A    between atoms: C_20  and  N_29 
REMARK   20  A    between atoms: C_21  and  C_22 
REMARK   21  A    between atoms: C_22  and  C_23 
REMARK   22  A    between atoms: C_23  and  N_24 
REMARK       I    between atoms: N_24  and  C_26 
REMARK       I    between atoms: C_26  and  N_27 
REMARK       I    between atoms: N_29  and  C_30 
REMARK   23  A    between atoms: C_30  and  C_32 
REMARK   24  A    between atoms: C_32  and  C_33 
REMARK   25  A    between atoms: C_32  and  N_41 
REMARK   26  A    between atoms: C_33  and  C_34 
REMARK   27  A    between atoms: C_37  and  O_40 
REMARK       I    between atoms: N_41  and  C_42 
ROOT
HETATM    1  C   UNL     1     -20.780  -6.959  -5.646  1.00  0.00     0.184 C 
ENDROOT
BRANCH   1   2
HETATM    2  C   UNL     1     -22.125  -6.463  -5.051  1.00  0.00     0.281 C 
HETATM    3  O   UNL     1     -22.906  -5.741  -5.627  1.00  0.00    -0.263 OA
BRANCH   2   4
HETATM    4  O   UNL     1     -22.293  -6.932  -3.773  1.00  0.00    -0.320 OA
BRANCH   4   5
HETATM    5  C   UNL     1     -21.914  -6.023  -2.727  1.00  0.00     0.178 C 
BRANCH   5   6
HETATM    6  C   UNL     1     -22.342  -6.544  -1.358  1.00  0.00     0.027 C 
BRANCH   6   7
HETATM    7  C   UNL     1     -21.403  -7.642  -0.867  1.00  0.00     0.002 C 
BRANCH   7   8
HETATM    8  C   UNL     1     -21.917  -8.264   0.424  1.00  0.00     0.000 C 
BRANCH   8   9
HETATM    9  C   UNL     1     -21.192  -9.571   0.707  1.00  0.00     0.000 C 
BRANCH   9  10
HETATM   10  C   UNL     1     -22.008 -10.746   0.197  1.00  0.00     0.000 C 
BRANCH  10  11
HETATM   11  C   UNL     1     -23.411 -10.291  -0.164  1.00  0.00     0.000 C 
BRANCH  11  12
HETATM   12  C   UNL     1     -24.220 -11.467  -0.680  1.00  0.00     0.000 C 
BRANCH  12  13
HETATM   13  C   UNL     1     -23.595 -12.770  -0.217  1.00  0.00     0.000 C 
BRANCH  13  14
HETATM   14  C   UNL     1     -23.941 -13.883  -1.189  1.00  0.00     0.000 C 
BRANCH  14  15
HETATM   15  C   UNL     1     -22.787 -14.864  -1.282  1.00  0.00     0.000 C 
BRANCH  15  16
HETATM   16  C   UNL     1     -21.611 -14.362  -0.465  1.00  0.00     0.000 C 
BRANCH  16  17
HETATM   17  C   UNL     1     -20.325 -15.011  -0.950  1.00  0.00     0.000 C 
BRANCH  17  18
HETATM   18  C   UNL     1     -19.135 -14.439  -0.198  1.00  0.00    -0.000 C 
BRANCH  18  19
HETATM   19  C   UNL     1     -19.313 -12.944   0.022  1.00  0.00    -0.005 C 
HETATM   20  C   UNL     1     -17.966 -12.249   0.025  1.00  0.00     0.005 C 
ENDBRANCH  18  19
ENDBRANCH  17  18
ENDBRANCH  16  17
ENDBRANCH  15  16
ENDBRANCH  14  15
ENDBRANCH  13  14
ENDBRANCH  12  13
ENDBRANCH  11  12
ENDBRANCH  10  11
ENDBRANCH   9  10
ENDBRANCH   8   9
ENDBRANCH   7   8
ENDBRANCH   6   7
ENDBRANCH   5   6
ENDBRANCH   4   5
ENDBRANCH   2   4
ENDBRANCH   1   2
BRANCH   1  21
HETATM   21  C   UNL     1     -19.992  -5.755  -6.225  1.00  0.00     0.037 C 
BRANCH  21  22
HETATM   22  C   UNL     1     -20.162  -5.599  -7.739  1.00  0.00     0.023 C 
BRANCH  22  23
HETATM   23  C   UNL     1     -20.859  -4.292  -8.095  1.00  0.00     0.138 C 
BRANCH  23  24
HETATM   24  N   UNL     1     -21.617  -4.505  -9.338  1.00  0.00    -0.227 N 
HETATM   25  C   UNL     1     -22.893  -4.400  -9.255  1.00  0.00     0.665 C 
HETATM   26  N   UNL     1     -23.631  -4.081  -8.170  1.00  0.00    -0.235 N 
HETATM   27  N   UNL     1     -23.685  -4.617 -10.319  1.00  0.00    -0.235 N 
HETATM   28  H   UNL     1     -23.185  -3.966  -7.269  1.00  0.00     0.174 HD
HETATM   29  H   UNL     1     -24.629  -4.033  -8.158  1.00  0.00     0.174 HD
HETATM   30  H   UNL     1     -23.238  -4.840 -11.199  1.00  0.00     0.174 HD
HETATM   31  H   UNL     1     -24.685  -4.521 -10.293  1.00  0.00     0.174 HD
ATOM     32  HN  UNL     1     -21.152  -4.725 -10.219  1.00  0.00     0.177 HD
ENDBRANCH  23  24
ENDBRANCH  22  23
ENDBRANCH  21  22
ENDBRANCH   1  21
BRANCH   1  33
HETATM   33  N   UNL     1     -19.935  -7.628  -4.640  1.00  0.00    -0.345 N 
HETATM   34  C   UNL     1     -19.244  -8.789  -4.875  1.00  0.00     0.241 C 
HETATM   35  O   UNL     1     -19.216  -9.354  -5.982  1.00  0.00    -0.271 OA
HETATM   36  H   UNL     1     -19.917  -7.209  -3.710  1.00  0.00     0.163 HD
BRANCH  34  37
HETATM   37  C   UNL     1     -18.356  -9.315  -3.709  1.00  0.00     0.180 C 
BRANCH  37  38
HETATM   38  C   UNL     1     -19.286  -9.944  -2.644  1.00  0.00     0.073 C 
BRANCH  38  39
HETATM   39  C   UNL     1     -20.298 -10.923  -3.198  1.00  0.00    -0.056 A 
HETATM   40  C   UNL     1     -21.633 -10.553  -3.405  1.00  0.00     0.010 A 
HETATM   41  C   UNL     1     -22.547 -11.473  -3.929  1.00  0.00     0.037 A 
HETATM   42  C   UNL     1     -22.118 -12.762  -4.238  1.00  0.00     0.065 A 
HETATM   43  C   UNL     1     -20.805 -13.151  -4.020  1.00  0.00     0.037 A 
HETATM   44  C   UNL     1     -19.892 -12.231  -3.514  1.00  0.00     0.010 A 
BRANCH  42  45
HETATM   45  O   UNL     1     -22.953 -13.692  -4.784  1.00  0.00    -0.361 OA
HETATM   46  H   UNL     1     -23.442 -14.130  -4.070  1.00  0.00     0.217 HD
ENDBRANCH  42  45
ENDBRANCH  38  39
ENDBRANCH  37  38
BRANCH  37  47
HETATM   47  N   UNL     1     -17.357 -10.304  -4.161  1.00  0.00    -0.348 N 
HETATM   48  C   UNL     1     -16.132 -10.432  -3.557  1.00  0.00     0.214 C 
HETATM   49  O   UNL     1     -15.752  -9.672  -2.674  1.00  0.00    -0.274 OA
HETATM   50  C   UNL     1     -15.252 -11.546  -4.082  1.00  0.00     0.117 C 
HETATM   51  H   UNL     1     -17.628 -10.957  -4.888  1.00  0.00     0.163 HD
ENDBRANCH  37  47
ENDBRANCH  34  37
ENDBRANCH   1  33
TORSDOF 27
BEGIN_RES ARG D 557
REMARK  4 active torsions:
REMARK  status: ('A' for Active; 'I' for Inactive)
REMARK    1  A    between atoms: CA   and  CB  
REMARK    2  A    between atoms: CB   and  CG  
REMARK    3  A    between atoms: CG   and  CD  
REMARK    4  A    between atoms: CD   and  NE  
REMARK       I    between atoms: NE   and  CZ  
REMARK       I    between atoms: CZ   and  NH1 
REMARK       I    between atoms: CZ   and  NH2 
ROOT
ATOM      1  CA  ARG D 557     -26.217   2.705 -17.014  1.00 35.49     0.159 C 
ENDROOT
BRANCH   1   2
ATOM      2  CB  ARG D 557     -26.789   1.319 -17.183  1.00 35.49     0.034 C 
BRANCH   2   3
ATOM      3  CG  ARG D 557     -25.835   0.204 -17.164  1.00 35.49     0.027 C 
BRANCH   3   4
ATOM      4  CD  ARG D 557     -24.888   0.290 -16.029  1.00 35.49     0.116 C 
BRANCH   4   5
ATOM      5  NE  ARG D 557     -25.163  -0.695 -15.017  1.00 35.49    -0.212 N 
ATOM      6  CZ  ARG D 557     -24.352  -1.659 -14.643  1.00 35.49     0.666 C 
ATOM      7  NH1 ARG D 557     -23.163  -1.837 -15.189  1.00 35.49    -0.235 N 
ATOM      8  NH2 ARG D 557     -24.758  -2.451 -13.693  1.00 35.49    -0.235 N 
ATOM      9  HH  ARG D 557     -22.874  -1.327 -15.814  1.00 35.49     0.174 HD
ATOM     10  HH  ARG D 557     -22.676  -2.482 -14.903  1.00 35.49     0.174 HD
ATOM     11  HH  ARG D 557     -25.527  -2.307 -13.354  1.00 35.49     0.174 HD
ATOM     12  HH  ARG D 557     -24.261  -3.082 -13.422  1.00 35.49     0.174 HD
ATOM     13  HE  ARG D 557     -25.936  -0.699 -14.664  1.00 35.49     0.178 HD
ENDBRANCH   4   5
ENDBRANCH   3   4
ENDBRANCH   2   3
ENDBRANCH   1   2
END_RES ARG D 557
BEGIN_RES GLU D 570
REMARK  3 active torsions:
REMARK  status: ('A' for Active; 'I' for Inactive)
REMARK    5  A    between atoms: CA   and  CB  
REMARK    6  A    between atoms: CB   and  CG  
REMARK    7  A    between atoms: CG   and  CD  
ROOT
ATOM     14  CA  GLU D 570     -18.033  -6.348 -13.375  1.00 32.92     0.160 C 
ENDROOT
BRANCH  14  15
ATOM     15  CB  GLU D 570     -19.500  -6.345 -13.794  1.00 32.92     0.043 C 
BRANCH  15  16
ATOM     16  CG  GLU D 570     -20.458  -5.609 -12.929  1.00 32.92     0.100 C 
BRANCH  16  17
ATOM     17  CD  GLU D 570     -21.701  -5.170 -13.666  1.00 32.92     0.185 C 
ATOM     18  OE1 GLU D 570     -22.012  -5.748 -14.726  1.00 32.92    -0.647 OA
ATOM     19  OE2 GLU D 570     -22.363  -4.228 -13.188  1.00 32.92    -0.647 OA
ENDBRANCH  16  17
ENDBRANCH  15  16
ENDBRANCH  14  15
END_RES GLU D 570
ENDMDL
MODEL 3
REMARK VINA RESULT:      -6.5      2.147      4.253
REMARK  27 active torsions:
REMARK  status: ('A' for Active; 'I' for Inactive)
REMARK    1  A    between atoms: C_2  and  C_3 
REMARK    2  A    between atoms: C_3  and  C_4 
REMARK    3  A    between atoms: C_4  and  C_5 
REMARK    4  A    between atoms: C_5  and  C_6 
REMARK    5  A    between atoms: C_6  and  C_7 
REMARK    6  A    between atoms: C_7  and  C_8 
REMARK    7  A    between atoms: C_8  and  C_9 
REMARK    8  A    between atoms: C_9  and  C_10 
REMARK    9  A    between atoms: C_10  and  C_11 
REMARK   10  A    between atoms: C_11  and  C_12 
REMARK   11  A    between atoms: C_12  and  C_13 
REMARK   12  A    between atoms: C_13  and  C_14 
REMARK   13  A    between atoms: C_14  and  C_15 
REMARK   14  A    between atoms: C_15  and  C_16 
REMARK   15  A    between atoms: C_16  and  O_17 
REMARK   16  A    between atoms: O_17  and  C_18 
REMARK   17  A    between atoms: C_18  and  C_20 
REMARK   18  A    between atoms: C_20  and  C_21 
REMARK   19  A    between atoms: C_20  and  N_29 
REMARK   20  A    between atoms: C_21  and  C_22 
REMARK   21  A    between atoms: C_22  and  C_23 
REMARK   22  A    between atoms: C_23  and  N_24 
REMARK       I    between atoms: N_24  and  C_26 
REMARK       I    between atoms: C_26  and  N_27 
REMARK       I    between atoms: N_29  and  C_30 
REMARK   23  A    between atoms: C_30  and  C_32 
REMARK   24  A    between atoms: C_32  and  C_33 
REMARK   25  A    between atoms: C_32  and  N_41 
REMARK   26  A    between atoms: C_33  and  C_34 
REMARK   27  A    between atoms: C_37  and  O_40 
REMARK       I    between atoms: N_41  and  C_42 
ROOT
HETATM    1  C   UNL     1     -23.640  -4.656 -14.013  1.00  0.00     0.184 C 
ENDROOT
BRANCH   1   2
HETATM    2  C   UNL     1     -23.327  -5.032 -12.540  1.00  0.00     0.281 C 
HETATM    3  O   UNL     1     -23.823  -5.964 -11.949  1.00  0.00    -0.263 OA
BRANCH   2   4
HETATM    4  O   UNL     1     -22.434  -4.147 -11.993  1.00  0.00    -0.320 OA
BRANCH   4   5
HETATM    5  C   UNL     1     -22.910  -3.418 -10.849  1.00  0.00     0.178 C 
BRANCH   5   6
HETATM    6  C   UNL     1     -22.107  -3.764  -9.598  1.00  0.00     0.027 C 
BRANCH   6   7
HETATM    7  C   UNL     1     -20.723  -4.297  -9.961  1.00  0.00     0.002 C 
BRANCH   7   8
HETATM    8  C   UNL     1     -19.869  -4.492  -8.716  1.00  0.00     0.000 C 
BRANCH   8   9
HETATM    9  C   UNL     1     -20.646  -5.259  -7.656  1.00  0.00     0.000 C 
BRANCH   9  10
HETATM   10  C   UNL     1     -20.490  -4.589  -6.302  1.00  0.00     0.000 C 
BRANCH  10  11
HETATM   11  C   UNL     1     -20.544  -5.628  -5.196  1.00  0.00     0.000 C 
BRANCH  11  12
HETATM   12  C   UNL     1     -21.895  -6.319  -5.199  1.00  0.00     0.000 C 
BRANCH  12  13
HETATM   13  C   UNL     1     -21.955  -7.345  -4.083  1.00  0.00     0.000 C 
BRANCH  13  14
HETATM   14  C   UNL     1     -21.190  -6.838  -2.874  1.00  0.00     0.000 C 
BRANCH  14  15
HETATM   15  C   UNL     1     -22.145  -6.172  -1.900  1.00  0.00     0.000 C 
BRANCH  15  16
HETATM   16  C   UNL     1     -22.479  -7.125  -0.767  1.00  0.00     0.000 C 
BRANCH  16  17
HETATM   17  C   UNL     1     -21.293  -8.031  -0.483  1.00  0.00     0.000 C 
BRANCH  17  18
HETATM   18  C   UNL     1     -21.739  -9.484  -0.457  1.00  0.00    -0.000 C 
BRANCH  18  19
HETATM   19  C   UNL     1     -23.165  -9.593   0.063  1.00  0.00    -0.005 C 
HETATM   20  C   UNL     1     -23.828 -10.844  -0.478  1.00  0.00     0.005 C 
ENDBRANCH  18  19
ENDBRANCH  17  18
ENDBRANCH  16  17
ENDBRANCH  15  16
ENDBRANCH  14  15
ENDBRANCH  13  14
ENDBRANCH  12  13
ENDBRANCH  11  12
ENDBRANCH  10  11
ENDBRANCH   9  10
ENDBRANCH   8   9
ENDBRANCH   7   8
ENDBRANCH   6   7
ENDBRANCH   5   6
ENDBRANCH   4   5
ENDBRANCH   2   4
ENDBRANCH   1   2
BRANCH   1  21
HETATM   21  C   UNL     1     -22.324  -4.288 -14.747  1.00  0.00     0.037 C 
BRANCH  21  22
HETATM   22  C   UNL     1     -22.380  -2.919 -15.430  1.00  0.00     0.023 C 
BRANCH  22  23
HETATM   23  C   UNL     1     -22.996  -1.863 -14.522  1.00  0.00     0.138 C 
BRANCH  23  24
HETATM   24  N   UNL     1     -24.237  -1.388 -15.154  1.00  0.00    -0.227 N 
HETATM   25  C   UNL     1     -25.335  -1.716 -14.577  1.00  0.00     0.665 C 
HETATM   26  N   UNL     1     -25.495  -2.418 -13.434  1.00  0.00    -0.235 N 
HETATM   27  N   UNL     1     -26.528  -1.372 -15.092  1.00  0.00    -0.235 N 
HETATM   28  H   UNL     1     -24.691  -2.818 -12.967  1.00  0.00     0.174 HD
HETATM   29  H   UNL     1     -26.379  -2.663 -13.039  1.00  0.00     0.174 HD
HETATM   30  H   UNL     1     -26.531  -0.819 -15.939  1.00  0.00     0.174 HD
HETATM   31  H   UNL     1     -27.405  -1.594 -14.653  1.00  0.00     0.174 HD
ATOM     32  HN  UNL     1     -24.225  -0.827 -16.006  1.00  0.00     0.177 HD
ENDBRANCH  23  24
ENDBRANCH  22  23
ENDBRANCH  21  22
ENDBRANCH   1  21
BRANCH   1  33
HETATM   33  N   UNL     1     -24.291  -5.757 -14.746  1.00  0.00    -0.345 N 
HETATM   34  C   UNL     1     -25.429  -5.607 -15.496  1.00  0.00     0.241 C 
HETATM   35  O   UNL     1     -25.986  -4.511 -15.678  1.00  0.00    -0.271 OA
HETATM   36  H   UNL     1     -23.878  -6.684 -14.637  1.00  0.00     0.163 HD
BRANCH  34  37
HETATM   37  C   UNL     1     -25.937  -6.872 -16.247  1.00  0.00     0.180 C 
BRANCH  37  38
HETATM   38  C   UNL     1     -27.157  -7.431 -15.477  1.00  0.00     0.073 C 
BRANCH  38  39
HETATM   39  C   UNL     1     -28.473  -6.776 -15.832  1.00  0.00    -0.056 A 
HETATM   40  C   UNL     1     -29.065  -5.824 -14.991  1.00  0.00     0.010 A 
HETATM   41  C   UNL     1     -30.277  -5.223 -15.347  1.00  0.00     0.037 A 
HETATM   42  C   UNL     1     -30.893  -5.585 -16.544  1.00  0.00     0.065 A 
HETATM   43  C   UNL     1     -30.332  -6.540 -17.378  1.00  0.00     0.037 A 
HETATM   44  C   UNL     1     -29.118  -7.125 -17.032  1.00  0.00     0.010 A 
BRANCH  42  45
HETATM   45  O   UNL     1     -32.056  -5.010 -16.962  1.00  0.00    -0.361 OA
HETATM   46  H   UNL     1     -32.262  -4.262 -16.379  1.00  0.00     0.217 HD
ENDBRANCH  42  45
ENDBRANCH  38  39
ENDBRANCH  37  38
BRANCH  37  47
HETATM   47  N   UNL     1     -26.306  -6.587 -17.649  1.00  0.00    -0.348 N 
HETATM   48  C   UNL     1     -25.401  -6.687 -18.676  1.00  0.00     0.214 C 
HETATM   49  O   UNL     1     -24.213  -6.920 -18.486  1.00  0.00    -0.274 OA
HETATM   50  C   UNL     1     -25.953  -6.443 -20.065  1.00  0.00     0.117 C 
HETATM   51  H   UNL     1     -27.279  -6.392 -17.855  1.00  0.00     0.163 HD
ENDBRANCH  37  47
ENDBRANCH  34  37
ENDBRANCH   1  33
TORSDOF 27
BEGIN_RES ARG D 557
REMARK  4 active torsions:
REMARK  status: ('A' for Active; 'I' for Inactive)
REMARK    1  A    between atoms: CA   and  CB  
REMARK    2  A    between atoms: CB   and  CG  
REMARK    3  A    between atoms: CG   and  CD  
REMARK    4  A    between atoms: CD   and  NE  
REMARK       I    between atoms: NE   and  CZ  
REMARK       I    between atoms: CZ   and  NH1 
REMARK       I    between atoms: CZ   and  NH2 
ROOT
ATOM      1  CA  ARG D 557     -26.217   2.705 -17.014  1.00 35.49     0.159 C 
ENDROOT
BRANCH   1   2
ATOM      2  CB  ARG D 557     -26.789   1.319 -17.183  1.00 35.49     0.034 C 
BRANCH   2   3
ATOM      3  CG  ARG D 557     -28.150   1.228 -17.727  1.00 35.49     0.027 C 
BRANCH   3   4
ATOM      4  CD  ARG D 557     -28.973   0.220 -17.020  1.00 35.49     0.116 C 
BRANCH   4   5
ATOM      5  NE  ARG D 557     -28.368  -1.086 -17.040  1.00 35.49    -0.212 N 
ATOM      6  CZ  ARG D 557     -28.997  -2.220 -17.254  1.00 35.49     0.666 C 
ATOM      7  NH1 ARG D 557     -30.298  -2.280 -17.466  1.00 35.49    -0.235 N 
ATOM      8  NH2 ARG D 557     -28.285  -3.309 -17.258  1.00 35.49    -0.235 N 
ATOM      9  HH  ARG D 557     -30.786  -1.576 -17.470  1.00 35.49     0.174 HD
ATOM     10  HH  ARG D 557     -30.653  -3.048 -17.603  1.00 35.49     0.174 HD
ATOM     11  HH  ARG D 557     -27.445  -3.239 -17.125  1.00 35.49     0.174 HD
ATOM     12  HH  ARG D 557     -28.654  -4.060 -17.396  1.00 35.49     0.174 HD
ATOM     13  HE  ARG D 557     -27.544  -1.147 -16.840  1.00 35.49     0.178 HD
ENDBRANCH   4   5
ENDBRANCH   3   4
ENDBRANCH   2   3
ENDBRANCH   1   2
END_RES ARG D 557
BEGIN_RES GLU D 570
REMARK  3 active torsions:
REMARK  status: ('A' for Active; 'I' for Inactive)
REMARK    5  A    between atoms: CA   and  CB  
REMARK    6  A    between atoms: CB   and  CG  
REMARK    7  A    between atoms: CG   and  CD  
ROOT
ATOM     14  CA  GLU D 570     -18.033  -6.348 -13.375  1.00 32.92     0.160 C 
ENDROOT
BRANCH  14  15
ATOM     15  CB  GLU D 570     -19.500  -6.345 -13.794  1.00 32.92     0.043 C 
BRANCH  15  16
ATOM     16  CG  GLU D 570     -19.797  -6.447 -15.246  1.00 32.92     0.100 C 
BRANCH  16  17
ATOM     17  CD  GLU D 570     -20.770  -7.557 -15.572  1.00 32.92     0.185 C 
ATOM     18  OE1 GLU D 570     -20.457  -8.733 -15.305  1.00 32.92    -0.647 OA
ATOM     19  OE2 GLU D 570     -21.848  -7.248 -16.115  1.00 32.92    -0.647 OA
ENDBRANCH  16  17
ENDBRANCH  15  16
ENDBRANCH  14  15
END_RES GLU D 570
ENDMDL
MODEL 4
REMARK VINA RESULT:      -6.4      2.268      4.742
REMARK  27 active torsions:
REMARK  status: ('A' for Active; 'I' for Inactive)
REMARK    1  A    between atoms: C_2  and  C_3 
REMARK    2  A    between atoms: C_3  and  C_4 
REMARK    3  A    between atoms: C_4  and  C_5 
REMARK    4  A    between atoms: C_5  and  C_6 
REMARK    5  A    between atoms: C_6  and  C_7 
REMARK    6  A    between atoms: C_7  and  C_8 
REMARK    7  A    between atoms: C_8  and  C_9 
REMARK    8  A    between atoms: C_9  and  C_10 
REMARK    9  A    between atoms: C_10  and  C_11 
REMARK   10  A    between atoms: C_11  and  C_12 
REMARK   11  A    between atoms: C_12  and  C_13 
REMARK   12  A    between atoms: C_13  and  C_14 
REMARK   13  A    between atoms: C_14  and  C_15 
REMARK   14  A    between atoms: C_15  and  C_16 
REMARK   15  A    between atoms: C_16  and  O_17 
REMARK   16  A    between atoms: O_17  and  C_18 
REMARK   17  A    between atoms: C_18  and  C_20 
REMARK   18  A    between atoms: C_20  and  C_21 
REMARK   19  A    between atoms: C_20  and  N_29 
REMARK   20  A    between atoms: C_21  and  C_22 
REMARK   21  A    between atoms: C_22  and  C_23 
REMARK   22  A    between atoms: C_23  and  N_24 
REMARK       I    between atoms: N_24  and  C_26 
REMARK       I    between atoms: C_26  and  N_27 
REMARK       I    between atoms: N_29  and  C_30 
REMARK   23  A    between atoms: C_30  and  C_32 
REMARK   24  A    between atoms: C_32  and  C_33 
REMARK   25  A    between atoms: C_32  and  N_41 
REMARK   26  A    between atoms: C_33  and  C_34 
REMARK   27  A    between atoms: C_37  and  O_40 
REMARK       I    between atoms: N_41  and  C_42 
ROOT
HETATM    1  C   UNL     1     -24.318  -3.444 -12.419  1.00  0.00     0.184 C 
ENDROOT
BRANCH   1   2
HETATM    2  C   UNL     1     -24.638  -3.698 -10.922  1.00  0.00     0.281 C 
HETATM    3  O   UNL     1     -25.454  -3.077 -10.279  1.00  0.00    -0.263 OA
BRANCH   2   4
HETATM    4  O   UNL     1     -23.849  -4.702 -10.420  1.00  0.00    -0.320 OA
BRANCH   4   5
HETATM    5  C   UNL     1     -23.251  -4.436  -9.141  1.00  0.00     0.178 C 
BRANCH   5   6
HETATM    6  C   UNL     1     -21.754  -4.172  -9.273  1.00  0.00     0.027 C 
BRANCH   6   7
HETATM    7  C   UNL     1     -21.128  -3.854  -7.917  1.00  0.00     0.002 C 
BRANCH   7   8
HETATM    8  C   UNL     1     -19.662  -4.262  -7.883  1.00  0.00     0.000 C 
BRANCH   8   9
HETATM    9  C   UNL     1     -19.314  -4.873  -6.534  1.00  0.00     0.000 C 
BRANCH   9  10
HETATM   10  C   UNL     1     -20.531  -4.867  -5.624  1.00  0.00     0.000 C 
BRANCH  10  11
HETATM   11  C   UNL     1     -20.627  -6.182  -4.871  1.00  0.00     0.000 C 
BRANCH  11  12
HETATM   12  C   UNL     1     -21.964  -6.274  -4.158  1.00  0.00     0.000 C 
BRANCH  12  13
HETATM   13  C   UNL     1     -21.748  -6.584  -2.689  1.00  0.00     0.000 C 
BRANCH  13  14
HETATM   14  C   UNL     1     -20.984  -7.888  -2.543  1.00  0.00     0.000 C 
BRANCH  14  15
HETATM   15  C   UNL     1     -20.975  -8.320  -1.088  1.00  0.00     0.000 C 
BRANCH  15  16
HETATM   16  C   UNL     1     -22.067  -7.596  -0.324  1.00  0.00     0.000 C 
BRANCH  16  17
HETATM   17  C   UNL     1     -23.119  -8.587   0.145  1.00  0.00     0.000 C 
BRANCH  17  18
HETATM   18  C   UNL     1     -22.822  -9.969  -0.412  1.00  0.00    -0.000 C 
BRANCH  18  19
HETATM   19  C   UNL     1     -23.988 -10.911  -0.151  1.00  0.00    -0.005 C 
HETATM   20  C   UNL     1     -23.500 -12.183   0.511  1.00  0.00     0.005 C 
ENDBRANCH  18  19
ENDBRANCH  17  18
ENDBRANCH  16  17
ENDBRANCH  15  16
ENDBRANCH  14  15
ENDBRANCH  13  14
ENDBRANCH  12  13
ENDBRANCH  11  12
ENDBRANCH  10  11
ENDBRANCH   9  10
ENDBRANCH   8   9
ENDBRANCH   7   8
ENDBRANCH   6   7
ENDBRANCH   5   6
ENDBRANCH   4   5
ENDBRANCH   2   4
ENDBRANCH   1   2
BRANCH   1  21
HETATM   21  C   UNL     1     -22.785  -3.515 -12.643  1.00  0.00     0.037 C 
BRANCH  21  22
HETATM   22  C   UNL     1     -22.272  -2.457 -13.622  1.00  0.00     0.023 C 
BRANCH  22  23
HETATM   23  C   UNL     1     -22.880  -2.631 -15.007  1.00  0.00     0.138 C 
BRANCH  23  24
HETATM   24  N   UNL     1     -22.743  -1.355 -15.728  1.00  0.00    -0.227 N 
HETATM   25  C   UNL     1     -23.648  -0.474 -15.508  1.00  0.00     0.665 C 
HETATM   26  N   UNL     1     -24.700  -0.556 -14.665  1.00  0.00    -0.235 N 
HETATM   27  N   UNL     1     -23.645   0.709 -16.145  1.00  0.00    -0.235 N 
HETATM   28  H   UNL     1     -24.887  -1.419 -14.170  1.00  0.00     0.174 HD
HETATM   29  H   UNL     1     -25.390   0.157 -14.548  1.00  0.00     0.174 HD
HETATM   30  H   UNL     1     -22.885   0.894 -16.787  1.00  0.00     0.174 HD
HETATM   31  H   UNL     1     -24.326   1.430 -15.979  1.00  0.00     0.174 HD
ATOM     32  HN  UNL     1     -21.968  -1.181 -16.368  1.00  0.00     0.177 HD
ENDBRANCH  23  24
ENDBRANCH  22  23
ENDBRANCH  21  22
ENDBRANCH   1  21
BRANCH   1  33
HETATM   33  N   UNL     1     -24.965  -4.430 -13.305  1.00  0.00    -0.345 N 
HETATM   34  C   UNL     1     -25.873  -4.102 -14.277  1.00  0.00     0.241 C 
HETATM   35  O   UNL     1     -26.192  -2.930 -14.546  1.00  0.00    -0.271 OA
HETATM   36  H   UNL     1     -24.741  -5.411 -13.134  1.00  0.00     0.163 HD
BRANCH  34  37
HETATM   37  C   UNL     1     -26.404  -5.273 -15.155  1.00  0.00     0.180 C 
BRANCH  37  38
HETATM   38  C   UNL     1     -27.754  -4.836 -15.771  1.00  0.00     0.073 C 
BRANCH  38  39
HETATM   39  C   UNL     1     -28.345  -5.829 -16.749  1.00  0.00    -0.056 A 
HETATM   40  C   UNL     1     -28.119  -5.718 -18.127  1.00  0.00     0.010 A 
HETATM   41  C   UNL     1     -28.665  -6.655 -19.010  1.00  0.00     0.037 A 
HETATM   42  C   UNL     1     -29.442  -7.696 -18.506  1.00  0.00     0.065 A 
HETATM   43  C   UNL     1     -29.693  -7.810 -17.147  1.00  0.00     0.037 A 
HETATM   44  C   UNL     1     -29.135  -6.887 -16.267  1.00  0.00     0.010 A 
BRANCH  42  45
HETATM   45  O   UNL     1     -29.973  -8.660 -19.312  1.00  0.00    -0.361 OA
HETATM   46  H   UNL     1     -30.795  -8.323 -19.701  1.00  0.00     0.217 HD
ENDBRANCH  42  45
ENDBRANCH  38  39
ENDBRANCH  37  38
BRANCH  37  47
HETATM   47  N   UNL     1     -25.457  -5.655 -16.221  1.00  0.00    -0.348 N 
HETATM   48  C   UNL     1     -24.993  -6.939 -16.359  1.00  0.00     0.214 C 
HETATM   49  O   UNL     1     -25.254  -7.823 -15.552  1.00  0.00    -0.274 OA
HETATM   50  C   UNL     1     -24.092  -7.189 -17.550  1.00  0.00     0.117 C 
HETATM   51  H   UNL     1     -25.213  -4.957 -16.915  1.00  0.00     0.163 HD
ENDBRANCH  37  47
ENDBRANCH  34  37
ENDBRANCH   1  33
TORSDOF 27
BEGIN_RES ARG D 557
REMARK  4 active torsions:
REMARK  status: ('A' for Active; 'I' for Inactive)
REMARK    1  A    between atoms: CA   and  CB  
REMARK    2  A    between atoms: CB   and  CG  
REMARK    3  A    between atoms: CG   and  CD  
REMARK    4  A    between atoms: CD   and  NE  
REMARK       I    between atoms: NE   and  CZ  
REMARK       I    between atoms: CZ   and  NH1 
REMARK       I    between atoms: CZ   and  NH2 
ROOT
ATOM      1  CA  ARG D 557     -26.217   2.705 -17.014  1.00 35.49     0.159 C 
ENDROOT
BRANCH   1   2
ATOM      2  CB  ARG D 557     -26.789   1.319 -17.183  1.00 35.49     0.034 C 
BRANCH   2   3
ATOM      3  CG  ARG D 557     -28.201   1.230 -17.575  1.00 35.49     0.027 C 
BRANCH   3   4
ATOM      4  CD  ARG D 557     -29.031   0.562 -16.547  1.00 35.49     0.116 C 
BRANCH   4   5
ATOM      5  NE  ARG D 557     -29.673  -0.622 -17.055  1.00 35.49    -0.212 N 
ATOM      6  CZ  ARG D 557     -29.130  -1.816 -17.137  1.00 35.49     0.666 C 
ATOM      7  NH1 ARG D 557     -27.887  -2.057 -16.762  1.00 35.49    -0.235 N 
ATOM      8  NH2 ARG D 557     -29.868  -2.780 -17.605  1.00 35.49    -0.235 N 
ATOM      9  HH  ARG D 557     -27.384  -1.437 -16.450  1.00 35.49     0.174 HD
ATOM     10  HH  ARG D 557     -27.587  -2.856 -16.836  1.00 35.49     0.174 HD
ATOM     11  HH  ARG D 557     -30.669  -2.597 -17.832  1.00 35.49     0.174 HD
ATOM     12  HH  ARG D 557     -29.553  -3.565 -17.669  1.00 35.49     0.174 HD
ATOM     13  HE  ARG D 557     -30.453  -0.543 -17.387  1.00 35.49     0.178 HD
ENDBRANCH   4   5
ENDBRANCH   3   4
ENDBRANCH   2   3
ENDBRANCH   1   2
END_RES ARG D 557
BEGIN_RES GLU D 570
REMARK  3 active torsions:
REMARK  status: ('A' for Active; 'I' for Inactive)
REMARK    5  A    between atoms: CA   and  CB  
REMARK    6  A    between atoms: CB   and  CG  
REMARK    7  A    between atoms: CG   and  CD  
ROOT
ATOM     14  CA  GLU D 570     -18.033  -6.348 -13.375  1.00 32.92     0.160 C 
ENDROOT
BRANCH  14  15
ATOM     15  CB  GLU D 570     -19.500  -6.345 -13.794  1.00 32.92     0.043 C 
BRANCH  15  16
ATOM     16  CG  GLU D 570     -19.796  -6.309 -15.250  1.00 32.92     0.100 C 
BRANCH  16  17
ATOM     17  CD  GLU D 570     -21.217  -5.893 -15.552  1.00 32.92     0.185 C 
ATOM     18  OE1 GLU D 570     -21.451  -5.249 -16.593  1.00 32.92    -0.647 OA
ATOM     19  OE2 GLU D 570     -22.103  -6.199 -14.730  1.00 32.92    -0.647 OA
ENDBRANCH  16  17
ENDBRANCH  15  16
ENDBRANCH  14  15
END_RES GLU D 570
ENDMDL
MODEL 5
REMARK VINA RESULT:      -6.3      7.831     14.500
REMARK  27 active torsions:
REMARK  status: ('A' for Active; 'I' for Inactive)
REMARK    1  A    between atoms: C_2  and  C_3 
REMARK    2  A    between atoms: C_3  and  C_4 
REMARK    3  A    between atoms: C_4  and  C_5 
REMARK    4  A    between atoms: C_5  and  C_6 
REMARK    5  A    between atoms: C_6  and  C_7 
REMARK    6  A    between atoms: C_7  and  C_8 
REMARK    7  A    between atoms: C_8  and  C_9 
REMARK    8  A    between atoms: C_9  and  C_10 
REMARK    9  A    between atoms: C_10  and  C_11 
REMARK   10  A    between atoms: C_11  and  C_12 
REMARK   11  A    between atoms: C_12  and  C_13 
REMARK   12  A    between atoms: C_13  and  C_14 
REMARK   13  A    between atoms: C_14  and  C_15 
REMARK   14  A    between atoms: C_15  and  C_16 
REMARK   15  A    between atoms: C_16  and  O_17 
REMARK   16  A    between atoms: O_17  and  C_18 
REMARK   17  A    between atoms: C_18  and  C_20 
REMARK   18  A    between atoms: C_20  and  C_21 
REMARK   19  A    between atoms: C_20  and  N_29 
REMARK   20  A    between atoms: C_21  and  C_22 
REMARK   21  A    between atoms: C_22  and  C_23 
REMARK   22  A    between atoms: C_23  and  N_24 
REMARK       I    between atoms: N_24  and  C_26 
REMARK       I    between atoms: C_26  and  N_27 
REMARK       I    between atoms: N_29  and  C_30 
REMARK   23  A    between atoms: C_30  and  C_32 
REMARK   24  A    between atoms: C_32  and  C_33 
REMARK   25  A    between atoms: C_32  and  N_41 
REMARK   26  A    between atoms: C_33  and  C_34 
REMARK   27  A    between atoms: C_37  and  O_40 
REMARK       I    between atoms: N_41  and  C_42 
ROOT
HETATM    1  C   UNL     1     -16.430 -11.797  -3.476  1.00  0.00     0.184 C 
ENDROOT
BRANCH   1   2
HETATM    2  C   UNL     1     -16.630 -10.547  -4.376  1.00  0.00     0.281 C 
HETATM    3  O   UNL     1     -15.812  -9.668  -4.522  1.00  0.00    -0.263 OA
BRANCH   2   4
HETATM    4  O   UNL     1     -17.872 -10.562  -4.958  1.00  0.00    -0.320 OA
BRANCH   4   5
HETATM    5  C   UNL     1     -18.599  -9.324  -4.892  1.00  0.00     0.178 C 
BRANCH   5   6
HETATM    6  C   UNL     1     -19.087  -9.042  -3.474  1.00  0.00     0.027 C 
BRANCH   6   7
HETATM    7  C   UNL     1     -20.459  -9.665  -3.228  1.00  0.00     0.002 C 
BRANCH   7   8
HETATM    8  C   UNL     1     -21.557  -8.614  -3.309  1.00  0.00     0.000 C 
BRANCH   8   9
HETATM    9  C   UNL     1     -21.235  -7.441  -2.395  1.00  0.00     0.000 C 
BRANCH   9  10
HETATM   10  C   UNL     1     -21.415  -6.129  -3.140  1.00  0.00     0.000 C 
BRANCH  10  11
HETATM   11  C   UNL     1     -21.680  -6.395  -4.611  1.00  0.00     0.000 C 
BRANCH  11  12
HETATM   12  C   UNL     1     -20.953  -5.370  -5.462  1.00  0.00     0.000 C 
BRANCH  12  13
HETATM   13  C   UNL     1     -20.106  -6.071  -6.508  1.00  0.00     0.000 C 
BRANCH  13  14
HETATM   14  C   UNL     1     -19.410  -5.044  -7.382  1.00  0.00     0.000 C 
BRANCH  14  15
HETATM   15  C   UNL     1     -20.409  -4.002  -7.851  1.00  0.00     0.000 C 
BRANCH  15  16
HETATM   16  C   UNL     1     -20.506  -4.021  -9.365  1.00  0.00     0.000 C 
BRANCH  16  17
HETATM   17  C   UNL     1     -21.910  -4.413  -9.792  1.00  0.00     0.000 C 
BRANCH  17  18
HETATM   18  C   UNL     1     -22.918  -3.979  -8.741  1.00  0.00    -0.000 C 
BRANCH  18  19
HETATM   19  C   UNL     1     -24.207  -3.510  -9.400  1.00  0.00    -0.005 C 
HETATM   20  C   UNL     1     -24.002  -3.332 -10.890  1.00  0.00     0.005 C 
ENDBRANCH  18  19
ENDBRANCH  17  18
ENDBRANCH  16  17
ENDBRANCH  15  16
ENDBRANCH  14  15
ENDBRANCH  13  14
ENDBRANCH  12  13
ENDBRANCH  11  12
ENDBRANCH  10  11
ENDBRANCH   9  10
ENDBRANCH   8   9
ENDBRANCH   7   8
ENDBRANCH   6   7
ENDBRANCH   5   6
ENDBRANCH   4   5
ENDBRANCH   2   4
ENDBRANCH   1   2
BRANCH   1  21
HETATM   21  C   UNL     1     -14.914 -12.064  -3.287  1.00  0.00     0.037 C 
BRANCH  21  22
HETATM   22  C   UNL     1     -14.535 -13.534  -3.484  1.00  0.00     0.023 C 
BRANCH  22  23
HETATM   23  C   UNL     1     -14.770 -14.349  -2.220  1.00  0.00     0.138 C 
BRANCH  23  24
HETATM   24  N   UNL     1     -14.046 -13.696  -1.116  1.00  0.00    -0.227 N 
HETATM   25  C   UNL     1     -13.397 -14.467  -0.323  1.00  0.00     0.665 C 
HETATM   26  N   UNL     1     -13.264 -15.809  -0.393  1.00  0.00    -0.235 N 
HETATM   27  N   UNL     1     -12.737 -13.981   0.742  1.00  0.00    -0.235 N 
HETATM   28  H   UNL     1     -13.769 -16.333  -1.096  1.00  0.00     0.174 HD
HETATM   29  H   UNL     1     -12.760 -16.364   0.268  1.00  0.00     0.174 HD
HETATM   30  H   UNL     1     -12.746 -12.980   0.883  1.00  0.00     0.174 HD
HETATM   31  H   UNL     1     -12.201 -14.555   1.370  1.00  0.00     0.174 HD
ATOM     32  HN  UNL     1     -14.060 -12.684  -0.990  1.00  0.00     0.177 HD
ENDBRANCH  23  24
ENDBRANCH  22  23
ENDBRANCH  21  22
ENDBRANCH   1  21
BRANCH   1  33
HETATM   33  N   UNL     1     -17.044 -11.633  -2.146  1.00  0.00    -0.345 N 
HETATM   34  C   UNL     1     -18.195 -12.268  -1.754  1.00  0.00     0.241 C 
HETATM   35  O   UNL     1     -18.795 -13.092  -2.465  1.00  0.00    -0.271 OA
HETATM   36  H   UNL     1     -16.594 -10.970  -1.515  1.00  0.00     0.163 HD
BRANCH  34  37
HETATM   37  C   UNL     1     -18.660 -12.018  -0.290  1.00  0.00     0.180 C 
BRANCH  37  38
HETATM   38  C   UNL     1     -20.169 -12.347  -0.203  1.00  0.00     0.073 C 
BRANCH  38  39
HETATM   39  C   UNL     1     -21.057 -11.147   0.040  1.00  0.00    -0.056 A 
HETATM   40  C   UNL     1     -20.589 -10.020   0.728  1.00  0.00     0.010 A 
HETATM   41  C   UNL     1     -21.426  -8.918   0.928  1.00  0.00     0.037 A 
HETATM   42  C   UNL     1     -22.732  -8.954   0.443  1.00  0.00     0.065 A 
HETATM   43  C   UNL     1     -23.218 -10.069  -0.222  1.00  0.00     0.037 A 
HETATM   44  C   UNL     1     -22.380 -11.159  -0.436  1.00  0.00     0.010 A 
BRANCH  42  45
HETATM   45  O   UNL     1     -23.584  -7.897   0.577  1.00  0.00    -0.361 OA
HETATM   46  H   UNL     1     -23.586  -7.614   1.505  1.00  0.00     0.217 HD
ENDBRANCH  42  45
ENDBRANCH  38  39
ENDBRANCH  37  38
BRANCH  37  47
HETATM   47  N   UNL     1     -17.905 -12.827   0.689  1.00  0.00    -0.348 N 
HETATM   48  C   UNL     1     -16.619 -12.517   1.056  1.00  0.00     0.214 C 
HETATM   49  O   UNL     1     -15.984 -11.614   0.524  1.00  0.00    -0.274 OA
HETATM   50  C   UNL     1     -16.011 -13.393   2.129  1.00  0.00     0.117 C 
HETATM   51  H   UNL     1     -18.390 -13.584   1.157  1.00  0.00     0.163 HD
ENDBRANCH  37  47
ENDBRANCH  34  37
ENDBRANCH   1  33
TORSDOF 27
BEGIN_RES ARG D 557
REMARK  4 active torsions:
REMARK  status: ('A' for Active; 'I' for Inactive)
REMARK    1  A    between atoms: CA   and  CB  
REMARK    2  A    between atoms: CB   and  CG  
REMARK    3  A    between atoms: CG   and  CD  
REMARK    4  A    between atoms: CD   and  NE  
REMARK       I    between atoms: NE   and  CZ  
REMARK       I    between atoms: CZ   and  NH1 
REMARK       I    between atoms: CZ   and  NH2 
ROOT
ATOM      1  CA  ARG D 557     -26.217   2.705 -17.014  1.00 35.49     0.159 C 
ENDROOT
BRANCH   1   2
ATOM      2  CB  ARG D 557     -26.789   1.319 -17.183  1.00 35.49     0.034 C 
BRANCH   2   3
ATOM      3  CG  ARG D 557     -28.231   1.167 -16.954  1.00 35.49     0.027 C 
BRANCH   3   4
ATOM      4  CD  ARG D 557     -28.617  -0.241 -16.704  1.00 35.49     0.116 C 
BRANCH   4   5
ATOM      5  NE  ARG D 557     -27.581  -0.976 -16.029  1.00 35.49    -0.212 N 
ATOM      6  CZ  ARG D 557     -27.397  -2.276 -16.089  1.00 35.49     0.666 C 
ATOM      7  NH1 ARG D 557     -28.183  -3.071 -16.791  1.00 35.49    -0.235 N 
ATOM      8  NH2 ARG D 557     -26.392  -2.771 -15.427  1.00 35.49    -0.235 N 
ATOM      9  HH  ARG D 557     -28.849  -2.766 -17.235  1.00 35.49     0.174 HD
ATOM     10  HH  ARG D 557     -28.013  -3.911 -16.795  1.00 35.49     0.174 HD
ATOM     11  HH  ARG D 557     -25.897  -2.232 -14.989  1.00 35.49     0.174 HD
ATOM     12  HH  ARG D 557     -26.239  -3.605 -15.445  1.00 35.49     0.174 HD
ATOM     13  HE  ARG D 557     -27.073  -0.551 -15.496  1.00 35.49     0.178 HD
ENDBRANCH   4   5
ENDBRANCH   3   4
ENDBRANCH   2   3
ENDBRANCH   1   2
END_RES ARG D 557
BEGIN_RES GLU D 570
REMARK  3 active torsions:
REMARK  status: ('A' for Active; 'I' for Inactive)
REMARK    5  A    between atoms: CA   and  CB  
REMARK    6  A    between atoms: CB   and  CG  
REMARK    7  A    between atoms: CG   and  CD  
ROOT
ATOM     14  CA  GLU D 570     -18.033  -6.348 -13.375  1.00 32.92     0.160 C 
ENDROOT
BRANCH  14  15
ATOM     15  CB  GLU D 570     -19.500  -6.345 -13.794  1.00 32.92     0.043 C 
BRANCH  15  16
ATOM     16  CG  GLU D 570     -20.419  -5.435 -13.063  1.00 32.92     0.100 C 
BRANCH  16  17
ATOM     17  CD  GLU D 570     -21.725  -5.209 -13.788  1.00 32.92     0.185 C 
ATOM     18  OE1 GLU D 570     -21.713  -4.628 -14.890  1.00 32.92    -0.647 OA
ATOM     19  OE2 GLU D 570     -22.774  -5.603 -13.240  1.00 32.92    -0.647 OA
ENDBRANCH  16  17
ENDBRANCH  15  16
ENDBRANCH  14  15
END_RES GLU D 570
ENDMDL
MODEL 6
REMARK VINA RESULT:      -6.2      7.088     13.750
REMARK  27 active torsions:
REMARK  status: ('A' for Active; 'I' for Inactive)
REMARK    1  A    between atoms: C_2  and  C_3 
REMARK    2  A    between atoms: C_3  and  C_4 
REMARK    3  A    between atoms: C_4  and  C_5 
REMARK    4  A    between atoms: C_5  and  C_6 
REMARK    5  A    between atoms: C_6  and  C_7 
REMARK    6  A    between atoms: C_7  and  C_8 
REMARK    7  A    between atoms: C_8  and  C_9 
REMARK    8  A    between atoms: C_9  and  C_10 
REMARK    9  A    between atoms: C_10  and  C_11 
REMARK   10  A    between atoms: C_11  and  C_12 
REMARK   11  A    between atoms: C_12  and  C_13 
REMARK   12  A    between atoms: C_13  and  C_14 
REMARK   13  A    between atoms: C_14  and  C_15 
REMARK   14  A    between atoms: C_15  and  C_16 
REMARK   15  A    between atoms: C_16  and  O_17 
REMARK   16  A    between atoms: O_17  and  C_18 
REMARK   17  A    between atoms: C_18  and  C_20 
REMARK   18  A    between atoms: C_20  and  C_21 
REMARK   19  A    between atoms: C_20  and  N_29 
REMARK   20  A    between atoms: C_21  and  C_22 
REMARK   21  A    between atoms: C_22  and  C_23 
REMARK   22  A    between atoms: C_23  and  N_24 
REMARK       I    between atoms: N_24  and  C_26 
REMARK       I    between atoms: C_26  and  N_27 
REMARK       I    between atoms: N_29  and  C_30 
REMARK   23  A    between atoms: C_30  and  C_32 
REMARK   24  A    between atoms: C_32  and  C_33 
REMARK   25  A    between atoms: C_32  and  N_41 
REMARK   26  A    between atoms: C_33  and  C_34 
REMARK   27  A    between atoms: C_37  and  O_40 
REMARK       I    between atoms: N_41  and  C_42 
ROOT
HETATM    1  C   UNL     1     -17.684 -10.942  -4.447  1.00  0.00     0.184 C 
ENDROOT
BRANCH   1   2
HETATM    2  C   UNL     1     -18.690 -10.285  -5.429  1.00  0.00     0.281 C 
HETATM    3  O   UNL     1     -18.533  -9.205  -5.952  1.00  0.00    -0.263 OA
BRANCH   2   4
HETATM    4  O   UNL     1     -19.793 -11.083  -5.601  1.00  0.00    -0.320 OA
BRANCH   4   5
HETATM    5  C   UNL     1     -21.060 -10.431  -5.418  1.00  0.00     0.178 C 
BRANCH   5   6
HETATM    6  C   UNL     1     -21.517 -10.504  -3.964  1.00  0.00     0.027 C 
BRANCH   6   7
HETATM    7  C   UNL     1     -21.977  -9.138  -3.461  1.00  0.00     0.002 C 
BRANCH   7   8
HETATM    8  C   UNL     1     -20.809  -8.166  -3.374  1.00  0.00     0.000 C 
BRANCH   8   9
HETATM    9  C   UNL     1     -21.294  -6.738  -3.571  1.00  0.00     0.000 C 
BRANCH   9  10
HETATM   10  C   UNL     1     -22.167  -6.644  -4.811  1.00  0.00     0.000 C 
BRANCH  10  11
HETATM   11  C   UNL     1     -21.319  -6.297  -6.022  1.00  0.00     0.000 C 
BRANCH  11  12
HETATM   12  C   UNL     1     -20.544  -5.018  -5.763  1.00  0.00     0.000 C 
BRANCH  12  13
HETATM   13  C   UNL     1     -19.516  -4.804  -6.857  1.00  0.00     0.000 C 
BRANCH  13  14
HETATM   14  C   UNL     1     -20.087  -5.238  -8.195  1.00  0.00     0.000 C 
BRANCH  14  15
HETATM   15  C   UNL     1     -20.426  -4.018  -9.031  1.00  0.00     0.000 C 
BRANCH  15  16
HETATM   16  C   UNL     1     -20.434  -4.384 -10.504  1.00  0.00     0.000 C 
BRANCH  16  17
HETATM   17  C   UNL     1     -21.515  -3.600 -11.229  1.00  0.00     0.000 C 
BRANCH  17  18
HETATM   18  C   UNL     1     -22.565  -4.548 -11.785  1.00  0.00    -0.000 C 
BRANCH  18  19
HETATM   19  C   UNL     1     -23.653  -4.802 -10.752  1.00  0.00    -0.005 C 
HETATM   20  C   UNL     1     -24.224  -3.490 -10.254  1.00  0.00     0.005 C 
ENDBRANCH  18  19
ENDBRANCH  17  18
ENDBRANCH  16  17
ENDBRANCH  15  16
ENDBRANCH  14  15
ENDBRANCH  13  14
ENDBRANCH  12  13
ENDBRANCH  11  12
ENDBRANCH  10  11
ENDBRANCH   9  10
ENDBRANCH   8   9
ENDBRANCH   7   8
ENDBRANCH   6   7
ENDBRANCH   5   6
ENDBRANCH   4   5
ENDBRANCH   2   4
ENDBRANCH   1   2
BRANCH   1  21
HETATM   21  C   UNL     1     -16.297 -10.262  -4.590  1.00  0.00     0.037 C 
BRANCH  21  22
HETATM   22  C   UNL     1     -15.175 -11.036  -3.894  1.00  0.00     0.023 C 
BRANCH  22  23
HETATM   23  C   UNL     1     -15.225 -12.520  -4.227  1.00  0.00     0.138 C 
BRANCH  23  24
HETATM   24  N   UNL     1     -15.259 -13.270  -2.961  1.00  0.00    -0.227 N 
HETATM   25  C   UNL     1     -14.138 -13.723  -2.534  1.00  0.00     0.665 C 
HETATM   26  N   UNL     1     -12.915 -13.566  -3.085  1.00  0.00    -0.235 N 
HETATM   27  N   UNL     1     -14.060 -14.457  -1.411  1.00  0.00    -0.235 N 
HETATM   28  H   UNL     1     -12.817 -13.103  -3.980  1.00  0.00     0.174 HD
HETATM   29  H   UNL     1     -12.073 -13.961  -2.718  1.00  0.00     0.174 HD
HETATM   30  H   UNL     1     -14.916 -14.619  -0.896  1.00  0.00     0.174 HD
HETATM   31  H   UNL     1     -13.195 -14.807  -1.038  1.00  0.00     0.174 HD
ATOM     32  HN  UNL     1     -16.129 -13.421  -2.451  1.00  0.00     0.177 HD
ENDBRANCH  23  24
ENDBRANCH  22  23
ENDBRANCH  21  22
ENDBRANCH   1  21
BRANCH   1  33
HETATM   33  N   UNL     1     -18.117 -10.827  -3.042  1.00  0.00    -0.345 N 
HETATM   34  C   UNL     1     -18.474 -11.898  -2.264  1.00  0.00     0.241 C 
HETATM   35  O   UNL     1     -18.406 -13.077  -2.653  1.00  0.00    -0.271 OA
HETATM   36  H   UNL     1     -18.191  -9.882  -2.664  1.00  0.00     0.163 HD
BRANCH  34  37
HETATM   37  C   UNL     1     -18.846 -11.587  -0.785  1.00  0.00     0.180 C 
BRANCH  37  38
HETATM   38  C   UNL     1     -20.309 -12.034  -0.554  1.00  0.00     0.073 C 
BRANCH  38  39
HETATM   39  C   UNL     1     -21.274 -10.900  -0.284  1.00  0.00    -0.056 A 
HETATM   40  C   UNL     1     -22.660 -11.089  -0.360  1.00  0.00     0.010 A 
HETATM   41  C   UNL     1     -23.532 -10.028  -0.094  1.00  0.00     0.037 A 
HETATM   42  C   UNL     1     -23.008  -8.781   0.241  1.00  0.00     0.065 A 
HETATM   43  C   UNL     1     -21.639  -8.572   0.300  1.00  0.00     0.037 A 
HETATM   44  C   UNL     1     -20.772  -9.631   0.052  1.00  0.00     0.010 A 
BRANCH  42  45
HETATM   45  O   UNL     1     -23.807  -7.718   0.545  1.00  0.00    -0.361 OA
HETATM   46  H   UNL     1     -24.221  -7.395  -0.271  1.00  0.00     0.217 HD
ENDBRANCH  42  45
ENDBRANCH  38  39
ENDBRANCH  37  38
BRANCH  37  47
HETATM   47  N   UNL     1     -17.950 -12.260   0.177  1.00  0.00    -0.348 N 
HETATM   48  C   UNL     1     -16.597 -12.028   0.200  1.00  0.00     0.214 C 
HETATM   49  O   UNL     1     -16.036 -11.329  -0.635  1.00  0.00    -0.274 OA
HETATM   50  C   UNL     1     -15.827 -12.731   1.298  1.00  0.00     0.117 C 
HETATM   51  H   UNL     1     -18.370 -12.847   0.889  1.00  0.00     0.163 HD
ENDBRANCH  37  47
ENDBRANCH  34  37
ENDBRANCH   1  33
TORSDOF 27
BEGIN_RES ARG D 557
REMARK  4 active torsions:
REMARK  status: ('A' for Active; 'I' for Inactive)
REMARK    1  A    between atoms: CA   and  CB  
REMARK    2  A    between atoms: CB   and  CG  
REMARK    3  A    between atoms: CG   and  CD  
REMARK    4  A    between atoms: CD   and  NE  
REMARK       I    between atoms: NE   and  CZ  
REMARK       I    between atoms: CZ   and  NH1 
REMARK       I    between atoms: CZ   and  NH2 
ROOT
ATOM      1  CA  ARG D 557     -26.217   2.705 -17.014  1.00 35.49     0.159 C 
ENDROOT
BRANCH   1   2
ATOM      2  CB  ARG D 557     -26.789   1.319 -17.183  1.00 35.49     0.034 C 
BRANCH   2   3
ATOM      3  CG  ARG D 557     -25.953   0.200 -16.732  1.00 35.49     0.027 C 
BRANCH   3   4
ATOM      4  CD  ARG D 557     -26.752  -0.906 -16.157  1.00 35.49     0.116 C 
BRANCH   4   5
ATOM      5  NE  ARG D 557     -26.023  -1.639 -15.156  1.00 35.49    -0.212 N 
ATOM      6  CZ  ARG D 557     -24.825  -1.339 -14.705  1.00 35.49     0.666 C 
ATOM      7  NH1 ARG D 557     -24.138  -0.304 -15.151  1.00 35.49    -0.235 N 
ATOM      8  NH2 ARG D 557     -24.324  -2.105 -13.780  1.00 35.49    -0.235 N 
ATOM      9  HH  ARG D 557     -24.449   0.214 -15.759  1.00 35.49     0.174 HD
ATOM     10  HH  ARG D 557     -23.363  -0.156 -14.818  1.00 35.49     0.174 HD
ATOM     11  HH  ARG D 557     -24.793  -2.762 -13.505  1.00 35.49     0.174 HD
ATOM     12  HH  ARG D 557     -23.555  -1.941 -13.461  1.00 35.49     0.174 HD
ATOM     13  HE  ARG D 557     -26.361  -2.363 -14.866  1.00 35.49     0.178 HD
ENDBRANCH   4   5
ENDBRANCH   3   4
ENDBRANCH   2   3
ENDBRANCH   1   2
END_RES ARG D 557
BEGIN_RES GLU D 570
REMARK  3 active torsions:
REMARK  status: ('A' for Active; 'I' for Inactive)
REMARK    5  A    between atoms: CA   and  CB  
REMARK    6  A    between atoms: CB   and  CG  
REMARK    7  A    between atoms: CG   and  CD  
ROOT
ATOM     14  CA  GLU D 570     -18.033  -6.348 -13.375  1.00 32.92     0.160 C 
ENDROOT
BRANCH  14  15
ATOM     15  CB  GLU D 570     -19.500  -6.345 -13.794  1.00 32.92     0.043 C 
BRANCH  15  16
ATOM     16  CG  GLU D 570     -19.803  -6.085 -15.225  1.00 32.92     0.100 C 
BRANCH  16  17
ATOM     17  CD  GLU D 570     -21.258  -5.762 -15.470  1.00 32.92     0.185 C 
ATOM     18  OE1 GLU D 570     -21.673  -4.612 -15.227  1.00 32.92    -0.647 OA
ATOM     19  OE2 GLU D 570     -21.996  -6.673 -15.895  1.00 32.92    -0.647 OA
ENDBRANCH  16  17
ENDBRANCH  15  16
ENDBRANCH  14  15
END_RES GLU D 570
ENDMDL
MODEL 7
REMARK VINA RESULT:      -6.2      5.428     12.402
REMARK  27 active torsions:
REMARK  status: ('A' for Active; 'I' for Inactive)
REMARK    1  A    between atoms: C_2  and  C_3 
REMARK    2  A    between atoms: C_3  and  C_4 
REMARK    3  A    between atoms: C_4  and  C_5 
REMARK    4  A    between atoms: C_5  and  C_6 
REMARK    5  A    between atoms: C_6  and  C_7 
REMARK    6  A    between atoms: C_7  and  C_8 
REMARK    7  A    between atoms: C_8  and  C_9 
REMARK    8  A    between atoms: C_9  and  C_10 
REMARK    9  A    between atoms: C_10  and  C_11 
REMARK   10  A    between atoms: C_11  and  C_12 
REMARK   11  A    between atoms: C_12  and  C_13 
REMARK   12  A    between atoms: C_13  and  C_14 
REMARK   13  A    between atoms: C_14  and  C_15 
REMARK   14  A    between atoms: C_15  and  C_16 
REMARK   15  A    between atoms: C_16  and  O_17 
REMARK   16  A    between atoms: O_17  and  C_18 
REMARK   17  A    between atoms: C_18  and  C_20 
REMARK   18  A    between atoms: C_20  and  C_21 
REMARK   19  A    between atoms: C_20  and  N_29 
REMARK   20  A    between atoms: C_21  and  C_22 
REMARK   21  A    between atoms: C_22  and  C_23 
REMARK   22  A    between atoms: C_23  and  N_24 
REMARK       I    between atoms: N_24  and  C_26 
REMARK       I    between atoms: C_26  and  N_27 
REMARK       I    between atoms: N_29  and  C_30 
REMARK   23  A    between atoms: C_30  and  C_32 
REMARK   24  A    between atoms: C_32  and  C_33 
REMARK   25  A    between atoms: C_32  and  N_41 
REMARK   26  A    between atoms: C_33  and  C_34 
REMARK   27  A    between atoms: C_37  and  O_40 
REMARK       I    between atoms: N_41  and  C_42 
ROOT
HETATM    1  C   UNL     1     -20.799  -6.496  -5.637  1.00  0.00     0.184 C 
ENDROOT
BRANCH   1   2
HETATM    2  C   UNL     1     -21.945  -6.182  -4.637  1.00  0.00     0.281 C 
HETATM    3  O   UNL     1     -23.121  -6.184  -4.919  1.00  0.00    -0.263 OA
BRANCH   2   4
HETATM    4  O   UNL     1     -21.438  -5.874  -3.400  1.00  0.00    -0.320 OA
BRANCH   4   5
HETATM    5  C   UNL     1     -22.287  -6.200  -2.287  1.00  0.00     0.178 C 
BRANCH   5   6
HETATM    6  C   UNL     1     -21.742  -7.392  -1.506  1.00  0.00     0.027 C 
BRANCH   6   7
HETATM    7  C   UNL     1     -22.210  -7.360  -0.053  1.00  0.00     0.002 C 
BRANCH   7   8
HETATM    8  C   UNL     1     -23.016  -8.605   0.289  1.00  0.00     0.000 C 
BRANCH   8   9
HETATM    9  C   UNL     1     -22.475  -9.809  -0.467  1.00  0.00     0.000 C 
BRANCH   9  10
HETATM   10  C   UNL     1     -21.496 -10.580   0.403  1.00  0.00     0.000 C 
BRANCH  10  11
HETATM   11  C   UNL     1     -21.541 -12.058   0.058  1.00  0.00     0.000 C 
BRANCH  11  12
HETATM   12  C   UNL     1     -22.914 -12.424  -0.475  1.00  0.00     0.000 C 
BRANCH  12  13
HETATM   13  C   UNL     1     -23.422 -13.675   0.217  1.00  0.00     0.000 C 
BRANCH  13  14
HETATM   14  C   UNL     1     -23.645 -13.395   1.692  1.00  0.00     0.000 C 
BRANCH  14  15
HETATM   15  C   UNL     1     -23.412 -14.659   2.499  1.00  0.00     0.000 C 
BRANCH  15  16
HETATM   16  C   UNL     1     -21.996 -14.674   3.043  1.00  0.00     0.000 C 
BRANCH  16  17
HETATM   17  C   UNL     1     -21.197 -15.785   2.382  1.00  0.00     0.000 C 
BRANCH  17  18
HETATM   18  C   UNL     1     -20.201 -15.197   1.395  1.00  0.00    -0.000 C 
BRANCH  18  19
HETATM   19  C   UNL     1     -18.992 -16.109   1.252  1.00  0.00    -0.005 C 
HETATM   20  C   UNL     1     -18.231 -16.185   2.559  1.00  0.00     0.005 C 
ENDBRANCH  18  19
ENDBRANCH  17  18
ENDBRANCH  16  17
ENDBRANCH  15  16
ENDBRANCH  14  15
ENDBRANCH  13  14
ENDBRANCH  12  13
ENDBRANCH  11  12
ENDBRANCH  10  11
ENDBRANCH   9  10
ENDBRANCH   8   9
ENDBRANCH   7   8
ENDBRANCH   6   7
ENDBRANCH   5   6
ENDBRANCH   4   5
ENDBRANCH   2   4
ENDBRANCH   1   2
BRANCH   1  21
HETATM   21  C   UNL     1     -20.058  -5.185  -6.007  1.00  0.00     0.037 C 
BRANCH  21  22
HETATM   22  C   UNL     1     -20.245  -4.784  -7.473  1.00  0.00     0.023 C 
BRANCH  22  23
HETATM   23  C   UNL     1     -21.628  -4.199  -7.724  1.00  0.00     0.138 C 
BRANCH  23  24
HETATM   24  N   UNL     1     -22.104  -4.699  -9.024  1.00  0.00    -0.227 N 
HETATM   25  C   UNL     1     -23.307  -4.393  -9.349  1.00  0.00     0.665 C 
HETATM   26  N   UNL     1     -24.185  -3.633  -8.660  1.00  0.00    -0.235 N 
HETATM   27  N   UNL     1     -23.857  -4.832 -10.494  1.00  0.00    -0.235 N 
HETATM   28  H   UNL     1     -23.947  -3.292  -7.737  1.00  0.00     0.174 HD
HETATM   29  H   UNL     1     -25.122  -3.443  -8.954  1.00  0.00     0.174 HD
HETATM   30  H   UNL     1     -23.280  -5.394 -11.107  1.00  0.00     0.174 HD
HETATM   31  H   UNL     1     -24.788  -4.592 -10.788  1.00  0.00     0.174 HD
ATOM     32  HN  UNL     1     -21.509  -5.260  -9.634  1.00  0.00     0.177 HD
ENDBRANCH  23  24
ENDBRANCH  22  23
ENDBRANCH  21  22
ENDBRANCH   1  21
BRANCH   1  33
HETATM   33  N   UNL     1     -19.817  -7.446  -5.083  1.00  0.00    -0.345 N 
HETATM   34  C   UNL     1     -19.988  -8.806  -5.080  1.00  0.00     0.241 C 
HETATM   35  O   UNL     1     -20.964  -9.371  -5.604  1.00  0.00    -0.271 OA
HETATM   36  H   UNL     1     -18.992  -7.041  -4.640  1.00  0.00     0.163 HD
BRANCH  34  37
HETATM   37  C   UNL     1     -18.815  -9.652  -4.505  1.00  0.00     0.180 C 
BRANCH  37  38
HETATM   38  C   UNL     1     -19.076  -9.871  -2.996  1.00  0.00     0.073 C 
BRANCH  38  39
HETATM   39  C   UNL     1     -18.016 -10.688  -2.291  1.00  0.00    -0.056 A 
HETATM   40  C   UNL     1     -16.660 -10.344  -2.365  1.00  0.00     0.010 A 
HETATM   41  C   UNL     1     -15.700 -11.108  -1.694  1.00  0.00     0.037 A 
HETATM   42  C   UNL     1     -16.105 -12.218  -0.955  1.00  0.00     0.065 A 
HETATM   43  C   UNL     1     -17.440 -12.585  -0.888  1.00  0.00     0.037 A 
HETATM   44  C   UNL     1     -18.397 -11.815  -1.542  1.00  0.00     0.010 A 
BRANCH  42  45
HETATM   45  O   UNL     1     -15.220 -12.981  -0.252  1.00  0.00    -0.361 OA
HETATM   46  H   UNL     1     -15.229 -13.882  -0.612  1.00  0.00     0.217 HD
ENDBRANCH  42  45
ENDBRANCH  38  39
ENDBRANCH  37  38
BRANCH  37  47
HETATM   47  N   UNL     1     -18.666 -10.952  -5.191  1.00  0.00    -0.348 N 
HETATM   48  C   UNL     1     -17.522 -11.292  -5.869  1.00  0.00     0.214 C 
HETATM   49  O   UNL     1     -16.596 -10.506  -6.032  1.00  0.00    -0.274 OA
HETATM   50  C   UNL     1     -17.492 -12.691  -6.447  1.00  0.00     0.117 C 
HETATM   51  H   UNL     1     -19.406 -11.636  -5.081  1.00  0.00     0.163 HD
ENDBRANCH  37  47
ENDBRANCH  34  37
ENDBRANCH   1  33
TORSDOF 27
BEGIN_RES ARG D 557
REMARK  4 active torsions:
REMARK  status: ('A' for Active; 'I' for Inactive)
REMARK    1  A    between atoms: CA   and  CB  
REMARK    2  A    between atoms: CB   and  CG  
REMARK    3  A    between atoms: CG   and  CD  
REMARK    4  A    between atoms: CD   and  NE  
REMARK       I    between atoms: NE   and  CZ  
REMARK       I    between atoms: CZ   and  NH1 
REMARK       I    between atoms: CZ   and  NH2 
ROOT
ATOM      1  CA  ARG D 557     -26.217   2.705 -17.014  1.00 35.49     0.159 C 
ENDROOT
BRANCH   1   2
ATOM      2  CB  ARG D 557     -26.789   1.319 -17.183  1.00 35.49     0.034 C 
BRANCH   2   3
ATOM      3  CG  ARG D 557     -25.860   0.195 -17.010  1.00 35.49     0.027 C 
BRANCH   3   4
ATOM      4  CD  ARG D 557     -26.248  -0.690 -15.888  1.00 35.49     0.116 C 
BRANCH   4   5
ATOM      5  NE  ARG D 557     -25.196  -0.825 -14.915  1.00 35.49    -0.212 N 
ATOM      6  CZ  ARG D 557     -24.799  -1.950 -14.365  1.00 35.49     0.666 C 
ATOM      7  NH1 ARG D 557     -25.356  -3.113 -14.648  1.00 35.49    -0.235 N 
ATOM      8  NH2 ARG D 557     -23.814  -1.889 -13.516  1.00 35.49    -0.235 N 
ATOM      9  HH  ARG D 557     -26.004  -3.178 -15.205  1.00 35.49     0.174 HD
ATOM     10  HH  ARG D 557     -25.053  -3.815 -14.260  1.00 35.49     0.174 HD
ATOM     11  HH  ARG D 557     -23.469  -1.125 -13.358  1.00 35.49     0.174 HD
ATOM     12  HH  ARG D 557     -23.528  -2.594 -13.143  1.00 35.49     0.174 HD
ATOM     13  HE  ARG D 557     -24.831  -0.116 -14.621  1.00 35.49     0.178 HD
ENDBRANCH   4   5
ENDBRANCH   3   4
ENDBRANCH   2   3
ENDBRANCH   1   2
END_RES ARG D 557
BEGIN_RES GLU D 570
REMARK  3 active torsions:
REMARK  status: ('A' for Active; 'I' for Inactive)
REMARK    5  A    between atoms: CA   and  CB  
REMARK    6  A    between atoms: CB   and  CG  
REMARK    7  A    between atoms: CG   and  CD  
ROOT
ATOM     14  CA  GLU D 570     -18.033  -6.348 -13.375  1.00 32.92     0.160 C 
ENDROOT
BRANCH  14  15
ATOM     15  CB  GLU D 570     -19.500  -6.345 -13.794  1.00 32.92     0.043 C 
BRANCH  15  16
ATOM     16  CG  GLU D 570     -20.440  -5.524 -12.988  1.00 32.92     0.100 C 
BRANCH  16  17
ATOM     17  CD  GLU D 570     -21.675  -5.116 -13.758  1.00 32.92     0.185 C 
ATOM     18  OE1 GLU D 570     -22.605  -4.549 -13.153  1.00 32.92    -0.647 OA
ATOM     19  OE2 GLU D 570     -21.720  -5.383 -14.975  1.00 32.92    -0.647 OA
ENDBRANCH  16  17
ENDBRANCH  15  16
ENDBRANCH  14  15
END_RES GLU D 570
ENDMDL
MODEL 8
REMARK VINA RESULT:      -6.2      5.035     11.397
REMARK  27 active torsions:
REMARK  status: ('A' for Active; 'I' for Inactive)
REMARK    1  A    between atoms: C_2  and  C_3 
REMARK    2  A    between atoms: C_3  and  C_4 
REMARK    3  A    between atoms: C_4  and  C_5 
REMARK    4  A    between atoms: C_5  and  C_6 
REMARK    5  A    between atoms: C_6  and  C_7 
REMARK    6  A    between atoms: C_7  and  C_8 
REMARK    7  A    between atoms: C_8  and  C_9 
REMARK    8  A    between atoms: C_9  and  C_10 
REMARK    9  A    between atoms: C_10  and  C_11 
REMARK   10  A    between atoms: C_11  and  C_12 
REMARK   11  A    between atoms: C_12  and  C_13 
REMARK   12  A    between atoms: C_13  and  C_14 
REMARK   13  A    between atoms: C_14  and  C_15 
REMARK   14  A    between atoms: C_15  and  C_16 
REMARK   15  A    between atoms: C_16  and  O_17 
REMARK   16  A    between atoms: O_17  and  C_18 
REMARK   17  A    between atoms: C_18  and  C_20 
REMARK   18  A    between atoms: C_20  and  C_21 
REMARK   19  A    between atoms: C_20  and  N_29 
REMARK   20  A    between atoms: C_21  and  C_22 
REMARK   21  A    between atoms: C_22  and  C_23 
REMARK   22  A    between atoms: C_23  and  N_24 
REMARK       I    between atoms: N_24  and  C_26 
REMARK       I    between atoms: C_26  and  N_27 
REMARK       I    between atoms: N_29  and  C_30 
REMARK   23  A    between atoms: C_30  and  C_32 
REMARK   24  A    between atoms: C_32  and  C_33 
REMARK   25  A    between atoms: C_32  and  N_41 
REMARK   26  A    between atoms: C_33  and  C_34 
REMARK   27  A    between atoms: C_37  and  O_40 
REMARK       I    between atoms: N_41  and  C_42 
ROOT
HETATM    1  C   UNL     1     -21.498  -6.621  -5.971  1.00  0.00     0.184 C 
ENDROOT
BRANCH   1   2
HETATM    2  C   UNL     1     -22.382  -6.331  -4.728  1.00  0.00     0.281 C 
HETATM    3  O   UNL     1     -23.592  -6.322  -4.734  1.00  0.00    -0.263 OA
BRANCH   2   4
HETATM    4  O   UNL     1     -21.604  -6.057  -3.632  1.00  0.00    -0.320 OA
BRANCH   4   5
HETATM    5  C   UNL     1     -22.258  -6.198  -2.360  1.00  0.00     0.178 C 
BRANCH   5   6
HETATM    6  C   UNL     1     -21.833  -7.485  -1.659  1.00  0.00     0.027 C 
BRANCH   6   7
HETATM    7  C   UNL     1     -22.005  -7.372  -0.146  1.00  0.00     0.002 C 
BRANCH   7   8
HETATM    8  C   UNL     1     -22.944  -8.449   0.378  1.00  0.00     0.000 C 
BRANCH   8   9
HETATM    9  C   UNL     1     -22.921  -9.663  -0.539  1.00  0.00     0.000 C 
BRANCH   9  10
HETATM   10  C   UNL     1     -23.977 -10.667  -0.109  1.00  0.00     0.000 C 
BRANCH  10  11
HETATM   11  C   UNL     1     -23.973 -11.863  -1.045  1.00  0.00     0.000 C 
BRANCH  11  12
HETATM   12  C   UNL     1     -22.887 -11.698  -2.091  1.00  0.00     0.000 C 
BRANCH  12  13
HETATM   13  C   UNL     1     -22.037 -12.953  -2.159  1.00  0.00     0.000 C 
BRANCH  13  14
HETATM   14  C   UNL     1     -21.029 -12.956  -1.024  1.00  0.00     0.000 C 
BRANCH  14  15
HETATM   15  C   UNL     1     -20.036 -11.824  -1.212  1.00  0.00     0.000 C 
BRANCH  15  16
HETATM   16  C   UNL     1     -19.210 -11.643   0.047  1.00  0.00     0.000 C 
BRANCH  16  17
HETATM   17  C   UNL     1     -18.149 -12.728   0.134  1.00  0.00     0.000 C 
BRANCH  17  18
HETATM   18  C   UNL     1     -16.776 -12.104   0.312  1.00  0.00    -0.000 C 
BRANCH  18  19
HETATM   19  C   UNL     1     -16.167 -11.764  -1.040  1.00  0.00    -0.005 C 
HETATM   20  C   UNL     1     -16.268 -12.951  -1.977  1.00  0.00     0.005 C 
ENDBRANCH  18  19
ENDBRANCH  17  18
ENDBRANCH  16  17
ENDBRANCH  15  16
ENDBRANCH  14  15
ENDBRANCH  13  14
ENDBRANCH  12  13
ENDBRANCH  11  12
ENDBRANCH  10  11
ENDBRANCH   9  10
ENDBRANCH   8   9
ENDBRANCH   7   8
ENDBRANCH   6   7
ENDBRANCH   5   6
ENDBRANCH   4   5
ENDBRANCH   2   4
ENDBRANCH   1   2
BRANCH   1  21
HETATM   21  C   UNL     1     -20.251  -5.699  -5.948  1.00  0.00     0.037 C 
BRANCH  21  22
HETATM   22  C   UNL     1     -20.506  -4.330  -6.583  1.00  0.00     0.023 C 
BRANCH  22  23
HETATM   23  C   UNL     1     -21.162  -4.458  -7.951  1.00  0.00     0.138 C 
BRANCH  23  24
HETATM   24  N   UNL     1     -22.539  -3.950  -7.844  1.00  0.00    -0.227 N 
HETATM   25  C   UNL     1     -23.177  -3.790  -8.946  1.00  0.00     0.665 C 
HETATM   26  N   UNL     1     -22.754  -4.066 -10.198  1.00  0.00    -0.235 N 
HETATM   27  N   UNL     1     -24.425  -3.291  -8.967  1.00  0.00    -0.235 N 
HETATM   28  H   UNL     1     -21.803  -4.374 -10.356  1.00  0.00     0.174 HD
HETATM   29  H   UNL     1     -23.289  -3.901 -11.026  1.00  0.00     0.174 HD
HETATM   30  H   UNL     1     -24.857  -3.071  -8.079  1.00  0.00     0.174 HD
HETATM   31  H   UNL     1     -24.960  -3.175  -9.810  1.00  0.00     0.174 HD
ATOM     32  HN  UNL     1     -22.964  -3.736  -6.942  1.00  0.00     0.177 HD
ENDBRANCH  23  24
ENDBRANCH  22  23
ENDBRANCH  21  22
ENDBRANCH   1  21
BRANCH   1  33
HETATM   33  N   UNL     1     -21.041  -8.022  -6.018  1.00  0.00    -0.345 N 
HETATM   34  C   UNL     1     -20.085  -8.541  -5.184  1.00  0.00     0.241 C 
HETATM   35  O   UNL     1     -19.557  -7.892  -4.264  1.00  0.00    -0.271 OA
HETATM   36  H   UNL     1     -21.441  -8.606  -6.753  1.00  0.00     0.163 HD
BRANCH  34  37
HETATM   37  C   UNL     1     -19.776 -10.058  -5.343  1.00  0.00     0.180 C 
BRANCH  37  38
HETATM   38  C   UNL     1     -18.689 -10.437  -4.309  1.00  0.00     0.073 C 
BRANCH  38  39
HETATM   39  C   UNL     1     -17.419 -10.996  -4.913  1.00  0.00    -0.056 A 
HETATM   40  C   UNL     1     -17.451 -12.066  -5.817  1.00  0.00     0.010 A 
HETATM   41  C   UNL     1     -16.265 -12.557  -6.371  1.00  0.00     0.037 A 
HETATM   42  C   UNL     1     -15.050 -11.976  -6.011  1.00  0.00     0.065 A 
HETATM   43  C   UNL     1     -14.999 -10.930  -5.102  1.00  0.00     0.037 A 
HETATM   44  C   UNL     1     -16.181 -10.431  -4.563  1.00  0.00     0.010 A 
BRANCH  42  45
HETATM   45  O   UNL     1     -13.865 -12.388  -6.543  1.00  0.00    -0.361 OA
HETATM   46  H   UNL     1     -13.305 -12.732  -5.830  1.00  0.00     0.217 HD
ENDBRANCH  42  45
ENDBRANCH  38  39
ENDBRANCH  37  38
BRANCH  37  47
HETATM   47  N   UNL     1     -20.973 -10.902  -5.156  1.00  0.00    -0.348 N 
HETATM   48  C   UNL     1     -21.426 -11.753  -6.133  1.00  0.00     0.214 C 
HETATM   49  O   UNL     1     -20.928 -11.794  -7.252  1.00  0.00    -0.274 OA
HETATM   50  C   UNL     1     -22.616 -12.611  -5.759  1.00  0.00     0.117 C 
HETATM   51  H   UNL     1     -21.417 -10.904  -4.245  1.00  0.00     0.163 HD
ENDBRANCH  37  47
ENDBRANCH  34  37
ENDBRANCH   1  33
TORSDOF 27
BEGIN_RES ARG D 557
REMARK  4 active torsions:
REMARK  status: ('A' for Active; 'I' for Inactive)
REMARK    1  A    between atoms: CA   and  CB  
REMARK    2  A    between atoms: CB   and  CG  
REMARK    3  A    between atoms: CG   and  CD  
REMARK    4  A    between atoms: CD   and  NE  
REMARK       I    between atoms: NE   and  CZ  
REMARK       I    between atoms: CZ   and  NH1 
REMARK       I    between atoms: CZ   and  NH2 
ROOT
ATOM      1  CA  ARG D 557     -26.217   2.705 -17.014  1.00 35.49     0.159 C 
ENDROOT
BRANCH   1   2
ATOM      2  CB  ARG D 557     -26.789   1.319 -17.183  1.00 35.49     0.034 C 
BRANCH   2   3
ATOM      3  CG  ARG D 557     -25.865   0.195 -16.988  1.00 35.49     0.027 C 
BRANCH   3   4
ATOM      4  CD  ARG D 557     -26.281  -0.691 -15.877  1.00 35.49     0.116 C 
BRANCH   4   5
ATOM      5  NE  ARG D 557     -25.213  -0.926 -14.942  1.00 35.49    -0.212 N 
ATOM      6  CZ  ARG D 557     -24.957  -2.066 -14.339  1.00 35.49     0.666 C 
ATOM      7  NH1 ARG D 557     -25.690  -3.147 -14.526  1.00 35.49    -0.235 N 
ATOM      8  NH2 ARG D 557     -23.932  -2.104 -13.537  1.00 35.49    -0.235 N 
ATOM      9  HH  ARG D 557     -26.368  -3.146 -15.050  1.00 35.49     0.174 HD
ATOM     10  HH  ARG D 557     -25.474  -3.863 -14.107  1.00 35.49     0.174 HD
ATOM     11  HH  ARG D 557     -23.472  -1.392 -13.442  1.00 35.49     0.174 HD
ATOM     12  HH  ARG D 557     -23.733  -2.822 -13.133  1.00 35.49     0.174 HD
ATOM     13  HE  ARG D 557     -24.734  -0.264 -14.708  1.00 35.49     0.178 HD
ENDBRANCH   4   5
ENDBRANCH   3   4
ENDBRANCH   2   3
ENDBRANCH   1   2
END_RES ARG D 557
BEGIN_RES GLU D 570
REMARK  3 active torsions:
REMARK  status: ('A' for Active; 'I' for Inactive)
REMARK    5  A    between atoms: CA   and  CB  
REMARK    6  A    between atoms: CB   and  CG  
REMARK    7  A    between atoms: CG   and  CD  
ROOT
ATOM     14  CA  GLU D 570     -18.033  -6.348 -13.375  1.00 32.92     0.160 C 
ENDROOT
BRANCH  14  15
ATOM     15  CB  GLU D 570     -19.500  -6.345 -13.794  1.00 32.92     0.043 C 
BRANCH  15  16
ATOM     16  CG  GLU D 570     -20.440  -5.524 -12.988  1.00 32.92     0.100 C 
BRANCH  16  17
ATOM     17  CD  GLU D 570     -21.684  -5.133 -13.752  1.00 32.92     0.185 C 
ATOM     18  OE1 GLU D 570     -21.611  -4.968 -14.984  1.00 32.92    -0.647 OA
ATOM     19  OE2 GLU D 570     -22.740  -4.974 -13.107  1.00 32.92    -0.647 OA
ENDBRANCH  16  17
ENDBRANCH  15  16
ENDBRANCH  14  15
END_RES GLU D 570
ENDMDL
MODEL 9
REMARK VINA RESULT:      -6.2      6.715     12.362
REMARK  27 active torsions:
REMARK  status: ('A' for Active; 'I' for Inactive)
REMARK    1  A    between atoms: C_2  and  C_3 
REMARK    2  A    between atoms: C_3  and  C_4 
REMARK    3  A    between atoms: C_4  and  C_5 
REMARK    4  A    between atoms: C_5  and  C_6 
REMARK    5  A    between atoms: C_6  and  C_7 
REMARK    6  A    between atoms: C_7  and  C_8 
REMARK    7  A    between atoms: C_8  and  C_9 
REMARK    8  A    between atoms: C_9  and  C_10 
REMARK    9  A    between atoms: C_10  and  C_11 
REMARK   10  A    between atoms: C_11  and  C_12 
REMARK   11  A    between atoms: C_12  and  C_13 
REMARK   12  A    between atoms: C_13  and  C_14 
REMARK   13  A    between atoms: C_14  and  C_15 
REMARK   14  A    between atoms: C_15  and  C_16 
REMARK   15  A    between atoms: C_16  and  O_17 
REMARK   16  A    between atoms: O_17  and  C_18 
REMARK   17  A    between atoms: C_18  and  C_20 
REMARK   18  A    between atoms: C_20  and  C_21 
REMARK   19  A    between atoms: C_20  and  N_29 
REMARK   20  A    between atoms: C_21  and  C_22 
REMARK   21  A    between atoms: C_22  and  C_23 
REMARK   22  A    between atoms: C_23  and  N_24 
REMARK       I    between atoms: N_24  and  C_26 
REMARK       I    between atoms: C_26  and  N_27 
REMARK       I    between atoms: N_29  and  C_30 
REMARK   23  A    between atoms: C_30  and  C_32 
REMARK   24  A    between atoms: C_32  and  C_33 
REMARK   25  A    between atoms: C_32  and  N_41 
REMARK   26  A    between atoms: C_33  and  C_34 
REMARK   27  A    between atoms: C_37  and  O_40 
REMARK       I    between atoms: N_41  and  C_42 
ROOT
HETATM    1  C   UNL     1     -16.721 -10.033  -4.828  1.00  0.00     0.184 C 
ENDROOT
BRANCH   1   2
HETATM    2  C   UNL     1     -16.431 -10.072  -3.304  1.00  0.00     0.281 C 
HETATM    3  O   UNL     1     -15.893  -9.183  -2.684  1.00  0.00    -0.263 OA
BRANCH   2   4
HETATM    4  O   UNL     1     -16.841 -11.263  -2.761  1.00  0.00    -0.320 OA
BRANCH   4   5
HETATM    5  C   UNL     1     -17.855 -11.164  -1.747  1.00  0.00     0.178 C 
BRANCH   5   6
HETATM    6  C   UNL     1     -19.004 -12.132  -2.017  1.00  0.00     0.027 C 
BRANCH   6   7
HETATM    7  C   UNL     1     -19.828 -12.373  -0.755  1.00  0.00     0.002 C 
BRANCH   7   8
HETATM    8  C   UNL     1     -19.693 -11.210   0.217  1.00  0.00     0.000 C 
BRANCH   8   9
HETATM    9  C   UNL     1     -21.050 -10.852   0.806  1.00  0.00     0.000 C 
BRANCH   9  10
HETATM   10  C   UNL     1     -21.141  -9.354   1.044  1.00  0.00     0.000 C 
BRANCH  10  11
HETATM   11  C   UNL     1     -22.236  -8.753   0.181  1.00  0.00     0.000 C 
BRANCH  11  12
HETATM   12  C   UNL     1     -21.623  -8.043  -1.013  1.00  0.00     0.000 C 
BRANCH  12  13
HETATM   13  C   UNL     1     -22.257  -6.675  -1.183  1.00  0.00     0.000 C 
BRANCH  13  14
HETATM   14  C   UNL     1     -21.881  -6.096  -2.535  1.00  0.00     0.000 C 
BRANCH  14  15
HETATM   15  C   UNL     1     -21.537  -7.217  -3.499  1.00  0.00     0.000 C 
BRANCH  15  16
HETATM   16  C   UNL     1     -21.424  -6.672  -4.910  1.00  0.00     0.000 C 
BRANCH  16  17
HETATM   17  C   UNL     1     -20.603  -5.393  -4.910  1.00  0.00     0.000 C 
BRANCH  17  18
HETATM   18  C   UNL     1     -20.795  -4.648  -6.220  1.00  0.00    -0.000 C 
BRANCH  18  19
HETATM   19  C   UNL     1     -19.541  -4.742  -7.076  1.00  0.00    -0.005 C 
HETATM   20  C   UNL     1     -19.877  -4.497  -8.532  1.00  0.00     0.005 C 
ENDBRANCH  18  19
ENDBRANCH  17  18
ENDBRANCH  16  17
ENDBRANCH  15  16
ENDBRANCH  14  15
ENDBRANCH  13  14
ENDBRANCH  12  13
ENDBRANCH  11  12
ENDBRANCH  10  11
ENDBRANCH   9  10
ENDBRANCH   8   9
ENDBRANCH   7   8
ENDBRANCH   6   7
ENDBRANCH   5   6
ENDBRANCH   4   5
ENDBRANCH   2   4
ENDBRANCH   1   2
BRANCH   1  21
HETATM   21  C   UNL     1     -15.425 -10.364  -5.613  1.00  0.00     0.037 C 
BRANCH  21  22
HETATM   22  C   UNL     1     -15.536 -11.646  -6.441  1.00  0.00     0.023 C 
BRANCH  22  23
HETATM   23  C   UNL     1     -14.564 -12.714  -5.958  1.00  0.00     0.138 C 
BRANCH  23  24
HETATM   24  N   UNL     1     -14.859 -12.990  -4.542  1.00  0.00    -0.227 N 
HETATM   25  C   UNL     1     -15.622 -13.993  -4.302  1.00  0.00     0.665 C 
HETATM   26  N   UNL     1     -16.164 -14.855  -5.189  1.00  0.00    -0.235 N 
HETATM   27  N   UNL     1     -15.990 -14.309  -3.049  1.00  0.00    -0.235 N 
HETATM   28  H   UNL     1     -16.045 -14.703  -6.182  1.00  0.00     0.174 HD
HETATM   29  H   UNL     1     -16.771 -15.611  -4.945  1.00  0.00     0.174 HD
HETATM   30  H   UNL     1     -15.622 -13.743  -2.295  1.00  0.00     0.174 HD
HETATM   31  H   UNL     1     -16.568 -15.101  -2.825  1.00  0.00     0.174 HD
ATOM     32  HN  UNL     1     -14.476 -12.414  -3.792  1.00  0.00     0.177 HD
ENDBRANCH  23  24
ENDBRANCH  22  23
ENDBRANCH  21  22
ENDBRANCH   1  21
BRANCH   1  33
HETATM   33  N   UNL     1     -17.764 -10.997  -5.224  1.00  0.00    -0.345 N 
HETATM   34  C   UNL     1     -19.052 -10.643  -5.535  1.00  0.00     0.241 C 
HETATM   35  O   UNL     1     -19.445  -9.464  -5.572  1.00  0.00    -0.271 OA
HETATM   36  H   UNL     1     -17.501 -11.983  -5.214  1.00  0.00     0.163 HD
BRANCH  34  37
HETATM   37  C   UNL     1     -19.997 -11.793  -5.989  1.00  0.00     0.180 C 
BRANCH  37  38
HETATM   38  C   UNL     1     -21.457 -11.332  -5.764  1.00  0.00     0.073 C 
BRANCH  38  39
HETATM   39  C   UNL     1     -22.057 -11.775  -4.448  1.00  0.00    -0.056 A 
HETATM   40  C   UNL     1     -22.162 -13.131  -4.113  1.00  0.00     0.010 A 
HETATM   41  C   UNL     1     -22.709 -13.515  -2.885  1.00  0.00     0.037 A 
HETATM   42  C   UNL     1     -23.154 -12.535  -1.999  1.00  0.00     0.065 A 
HETATM   43  C   UNL     1     -23.077 -11.189  -2.323  1.00  0.00     0.037 A 
HETATM   44  C   UNL     1     -22.517 -10.807  -3.538  1.00  0.00     0.010 A 
BRANCH  42  45
HETATM   45  O   UNL     1     -23.665 -12.846  -0.774  1.00  0.00    -0.361 OA
HETATM   46  H   UNL     1     -23.078 -12.485  -0.091  1.00  0.00     0.217 HD
ENDBRANCH  42  45
ENDBRANCH  38  39
ENDBRANCH  37  38
BRANCH  37  47
HETATM   47  N   UNL     1     -19.793 -12.168  -7.403  1.00  0.00    -0.348 N 
HETATM   48  C   UNL     1     -18.938 -13.175  -7.775  1.00  0.00     0.214 C 
HETATM   49  O   UNL     1     -18.218 -13.756  -6.972  1.00  0.00    -0.274 OA
HETATM   50  C   UNL     1     -18.901 -13.493  -9.255  1.00  0.00     0.117 C 
HETATM   51  H   UNL     1     -20.369 -11.715  -8.103  1.00  0.00     0.163 HD
ENDBRANCH  37  47
ENDBRANCH  34  37
ENDBRANCH   1  33
TORSDOF 27
BEGIN_RES ARG D 557
REMARK  4 active torsions:
REMARK  status: ('A' for Active; 'I' for Inactive)
REMARK    1  A    between atoms: CA   and  CB  
REMARK    2  A    between atoms: CB   and  CG  
REMARK    3  A    between atoms: CG   and  CD  
REMARK    4  A    between atoms: CD   and  NE  
REMARK       I    between atoms: NE   and  CZ  
REMARK       I    between atoms: CZ   and  NH1 
REMARK       I    between atoms: CZ   and  NH2 
ROOT
ATOM      1  CA  ARG D 557     -26.217   2.705 -17.014  1.00 35.49     0.159 C 
ENDROOT
BRANCH   1   2
ATOM      2  CB  ARG D 557     -26.789   1.319 -17.183  1.00 35.49     0.034 C 
BRANCH   2   3
ATOM      3  CG  ARG D 557     -25.919   0.196 -16.813  1.00 35.49     0.027 C 
BRANCH   3   4
ATOM      4  CD  ARG D 557     -26.661  -0.892 -16.135  1.00 35.49     0.116 C 
BRANCH   4   5
ATOM      5  NE  ARG D 557     -25.874  -1.529 -15.111  1.00 35.49    -0.212 N 
ATOM      6  CZ  ARG D 557     -25.907  -2.805 -14.800  1.00 35.49     0.666 C 
ATOM      7  NH1 ARG D 557     -26.705  -3.663 -15.408  1.00 35.49    -0.235 N 
ATOM      8  NH2 ARG D 557     -25.107  -3.213 -13.858  1.00 35.49    -0.235 N 
ATOM      9  HH  ARG D 557     -27.238  -3.417 -16.032  1.00 35.49     0.174 HD
ATOM     10  HH  ARG D 557     -26.681  -4.484 -15.164  1.00 35.49     0.174 HD
ATOM     11  HH  ARG D 557     -24.598  -2.638 -13.488  1.00 35.49     0.174 HD
ATOM     12  HH  ARG D 557     -25.097  -4.031 -13.631  1.00 35.49     0.174 HD
ATOM     13  HE  ARG D 557     -25.384  -1.036 -14.620  1.00 35.49     0.178 HD
ENDBRANCH   4   5
ENDBRANCH   3   4
ENDBRANCH   2   3
ENDBRANCH   1   2
END_RES ARG D 557
BEGIN_RES GLU D 570
REMARK  3 active torsions:
REMARK  status: ('A' for Active; 'I' for Inactive)
REMARK    5  A    between atoms: CA   and  CB  
REMARK    6  A    between atoms: CB   and  CG  
REMARK    7  A    between atoms: CG   and  CD  
ROOT
ATOM     14  CA  GLU D 570     -18.033  -6.348 -13.375  1.00 32.92     0.160 C 
ENDROOT
BRANCH  14  15
ATOM     15  CB  GLU D 570     -19.500  -6.345 -13.794  1.00 32.92     0.043 C 
BRANCH  15  16
ATOM     16  CG  GLU D 570     -20.435  -5.501 -13.006  1.00 32.92     0.100 C 
BRANCH  16  17
ATOM     17  CD  GLU D 570     -21.700  -5.161 -13.760  1.00 32.92     0.185 C 
ATOM     18  OE1 GLU D 570     -21.623  -4.867 -14.969  1.00 32.92    -0.647 OA
ATOM     19  OE2 GLU D 570     -22.776  -5.172 -13.131  1.00 32.92    -0.647 OA
ENDBRANCH  16  17
ENDBRANCH  15  16
ENDBRANCH  14  15
END_RES GLU D 570
ENDMDL
