MODEL 1
REMARK VINA RESULT:      -8.3      0.000      0.000
REMARK  22 active torsions:
REMARK  status: ('A' for Active; 'I' for Inactive)
REMARK    1  A    between atoms: C_2  and  C_3 
REMARK    2  A    between atoms: C_3  and  C_4 
REMARK    3  A    between atoms: C_4  and  C_5 
REMARK    4  A    between atoms: C_5  and  C_6 
REMARK    5  A    between atoms: C_6  and  C_7 
REMARK    6  A    between atoms: C_7  and  C_8 
REMARK    7  A    between atoms: C_8  and  C_9 
REMARK    8  A    between atoms: C_10  and  C_11 
REMARK    9  A    between atoms: C_11  and  C_12 
REMARK   10  A    between atoms: C_12  and  C_13 
REMARK   11  A    between atoms: C_13  and  C_14 
REMARK   12  A    between atoms: C_14  and  C_15 
REMARK   13  A    between atoms: C_15  and  C_16 
REMARK   14  A    between atoms: C_16  and  C_17 
REMARK   15  A    between atoms: C_17  and  C_18 
REMARK   16  A    between atoms: C_18  and  O_20 
REMARK   17  A    between atoms: O_20  and  C_21 
REMARK   18  A    between atoms: C_21  and  C_22 
REMARK   19  A    between atoms: C_22  and  C_23 
REMARK   20  A    between atoms: C_22  and  O_30 
REMARK   21  A    between atoms: C_24  and  O_29 
REMARK   22  A    between atoms: C_25  and  O_28 
ROOT
HETATM    1  C   UNL     1     -20.369  -5.103  -8.520  1.00  0.00     0.111 C 
ENDROOT
BRANCH   1   2
HETATM    2  C   UNL     1     -19.737  -4.373  -7.342  1.00  0.00     0.010 C 
BRANCH   2   3
HETATM    3  C   UNL     1     -20.151  -4.963  -5.997  1.00  0.00     0.000 C 
BRANCH   3   4
HETATM    4  C   UNL     1     -21.618  -5.369  -6.025  1.00  0.00     0.000 C 
BRANCH   4   5
HETATM    5  C   UNL     1     -21.809  -6.787  -5.494  1.00  0.00     0.000 C 
BRANCH   5   6
HETATM    6  C   UNL     1     -20.464  -7.464  -5.250  1.00  0.00     0.004 C 
BRANCH   6   7
HETATM    7  C   UNL     1     -20.486  -8.254  -3.946  1.00  0.00     0.027 C 
BRANCH   7   8
HETATM    8  C   UNL     1     -21.525  -7.729  -3.017  1.00  0.00    -0.031 C 
HETATM    9  C   UNL     1     -21.231  -7.310  -1.781  1.00  0.00    -0.031 C 
BRANCH   9  10
HETATM   10  C   UNL     1     -22.279  -6.785  -0.857  1.00  0.00     0.027 C 
BRANCH  10  11
HETATM   11  C   UNL     1     -22.840  -7.905   0.006  1.00  0.00     0.004 C 
BRANCH  11  12
HETATM   12  C   UNL     1     -21.713  -8.773   0.540  1.00  0.00     0.000 C 
BRANCH  12  13
HETATM   13  C   UNL     1     -22.005 -10.238   0.261  1.00  0.00     0.000 C 
BRANCH  13  14
HETATM   14  C   UNL     1     -23.446 -10.408  -0.194  1.00  0.00     0.000 C 
BRANCH  14  15
HETATM   15  C   UNL     1     -23.736 -11.873  -0.480  1.00  0.00    -0.000 C 
BRANCH  15  16
HETATM   16  C   UNL     1     -22.729 -12.765   0.234  1.00  0.00    -0.005 C 
HETATM   17  C   UNL     1     -23.355 -13.386   1.467  1.00  0.00     0.005 C 
ENDBRANCH  15  16
ENDBRANCH  14  15
ENDBRANCH  13  14
ENDBRANCH  12  13
ENDBRANCH  11  12
ENDBRANCH  10  11
ENDBRANCH   9  10
ENDBRANCH   7   8
ENDBRANCH   6   7
ENDBRANCH   5   6
ENDBRANCH   4   5
ENDBRANCH   3   4
ENDBRANCH   2   3
ENDBRANCH   1   2
BRANCH   1  18
HETATM   18  C   UNL     1     -20.962  -4.100  -9.505  1.00  0.00     0.258 C 
HETATM   19  O   UNL     1     -20.358  -3.667 -10.462  1.00  0.00    -0.265 OA
BRANCH  18  20
HETATM   20  O   UNL     1     -22.203  -3.704  -9.094  1.00  0.00    -0.319 OA
BRANCH  20  21
HETATM   21  C   UNL     1     -23.266  -4.322  -9.830  1.00  0.00     0.213 C 
BRANCH  21  22
HETATM   22  C   UNL     1     -24.087  -3.266 -10.565  1.00  0.00     0.174 C 
BRANCH  22  23
HETATM   23  C   UNL     1     -24.051  -3.468 -12.085  1.00  0.00     0.183 C 
HETATM   24  C   UNL     1     -22.990  -2.610 -12.784  1.00  0.00     0.180 C 
HETATM   25  C   UNL     1     -23.627  -2.240 -14.137  1.00  0.00     0.173 C 
HETATM   26  C   UNL     1     -24.986  -2.930 -14.109  1.00  0.00     0.202 C 
HETATM   27  O   UNL     1     -25.300  -3.158 -12.725  1.00  0.00    -0.378 OA
BRANCH  24  28
HETATM   28  O   UNL     1     -21.741  -3.290 -12.761  1.00  0.00    -0.390 OA
HETATM   29  H   UNL     1     -21.128  -2.833 -13.358  1.00  0.00     0.210 HD
ENDBRANCH  24  28
BRANCH  25  30
HETATM   30  O   UNL     1     -22.884  -2.515 -15.316  1.00  0.00    -0.391 OA
HETATM   31  H   UNL     1     -21.929  -2.517 -15.126  1.00  0.00     0.210 HD
ENDBRANCH  25  30
ENDBRANCH  22  23
BRANCH  22  32
HETATM   32  O   UNL     1     -25.433  -3.233 -10.081  1.00  0.00    -0.391 OA
HETATM   33  H   UNL     1     -25.643  -4.075  -9.643  1.00  0.00     0.210 HD
ENDBRANCH  22  32
ENDBRANCH  21  22
ENDBRANCH  20  21
ENDBRANCH  18  20
ENDBRANCH   1  18
TORSDOF 22
BEGIN_RES ARG D 557
REMARK  4 active torsions:
REMARK  status: ('A' for Active; 'I' for Inactive)
REMARK    1  A    between atoms: CA   and  CB  
REMARK    2  A    between atoms: CB   and  CG  
REMARK    3  A    between atoms: CG   and  CD  
REMARK    4  A    between atoms: CD   and  NE  
REMARK       I    between atoms: NE   and  CZ  
REMARK       I    between atoms: CZ   and  NH1 
REMARK       I    between atoms: CZ   and  NH2 
ROOT
ATOM      1  CA  ARG D 557     -26.217   2.705 -17.014  1.00 35.49     0.159 C 
ENDROOT
BRANCH   1   2
ATOM      2  CB  ARG D 557     -26.789   1.319 -17.183  1.00 35.49     0.034 C 
BRANCH   2   3
ATOM      3  CG  ARG D 557     -28.144   1.096 -16.664  1.00 35.49     0.027 C 
BRANCH   3   4
ATOM      4  CD  ARG D 557     -28.795  -0.085 -17.276  1.00 35.49     0.116 C 
BRANCH   4   5
ATOM      5  NE  ARG D 557     -28.193  -1.320 -16.847  1.00 35.49    -0.212 N 
ATOM      6  CZ  ARG D 557     -28.689  -2.522 -17.035  1.00 35.49     0.666 C 
ATOM      7  NH1 ARG D 557     -29.840  -2.727 -17.648  1.00 35.49    -0.235 N 
ATOM      8  NH2 ARG D 557     -27.995  -3.533 -16.597  1.00 35.49    -0.235 N 
ATOM      9  HH  ARG D 557     -30.312  -2.076 -17.946  1.00 35.49     0.174 HD
ATOM     10  HH  ARG D 557     -30.112  -3.533 -17.745  1.00 35.49     0.174 HD
ATOM     11  HH  ARG D 557     -27.252  -3.371 -16.212  1.00 35.49     0.174 HD
ATOM     12  HH  ARG D 557     -28.281  -4.324 -16.704  1.00 35.49     0.174 HD
ATOM     13  HE  ARG D 557     -27.484  -1.277 -16.380  1.00 35.49     0.178 HD
ENDBRANCH   4   5
ENDBRANCH   3   4
ENDBRANCH   2   3
ENDBRANCH   1   2
END_RES ARG D 557
BEGIN_RES GLU D 570
REMARK  3 active torsions:
REMARK  status: ('A' for Active; 'I' for Inactive)
REMARK    5  A    between atoms: CA   and  CB  
REMARK    6  A    between atoms: CB   and  CG  
REMARK    7  A    between atoms: CG   and  CD  
ROOT
ATOM     14  CA  GLU D 570     -18.033  -6.348 -13.375  1.00 32.92     0.160 C 
ENDROOT
BRANCH  14  15
ATOM     15  CB  GLU D 570     -19.500  -6.345 -13.794  1.00 32.92     0.043 C 
BRANCH  15  16
ATOM     16  CG  GLU D 570     -19.804  -6.062 -15.221  1.00 32.92     0.100 C 
BRANCH  16  17
ATOM     17  CD  GLU D 570     -21.188  -5.491 -15.426  1.00 32.92     0.185 C 
ATOM     18  OE1 GLU D 570     -21.475  -4.981 -16.526  1.00 32.92    -0.647 OA
ATOM     19  OE2 GLU D 570     -21.988  -5.539 -14.471  1.00 32.92    -0.647 OA
ENDBRANCH  16  17
ENDBRANCH  15  16
ENDBRANCH  14  15
END_RES GLU D 570
ENDMDL
MODEL 2
REMARK VINA RESULT:      -8.2      1.059      1.742
REMARK  22 active torsions:
REMARK  status: ('A' for Active; 'I' for Inactive)
REMARK    1  A    between atoms: C_2  and  C_3 
REMARK    2  A    between atoms: C_3  and  C_4 
REMARK    3  A    between atoms: C_4  and  C_5 
REMARK    4  A    between atoms: C_5  and  C_6 
REMARK    5  A    between atoms: C_6  and  C_7 
REMARK    6  A    between atoms: C_7  and  C_8 
REMARK    7  A    between atoms: C_8  and  C_9 
REMARK    8  A    between atoms: C_10  and  C_11 
REMARK    9  A    between atoms: C_11  and  C_12 
REMARK   10  A    between atoms: C_12  and  C_13 
REMARK   11  A    between atoms: C_13  and  C_14 
REMARK   12  A    between atoms: C_14  and  C_15 
REMARK   13  A    between atoms: C_15  and  C_16 
REMARK   14  A    between atoms: C_16  and  C_17 
REMARK   15  A    between atoms: C_17  and  C_18 
REMARK   16  A    between atoms: C_18  and  O_20 
REMARK   17  A    between atoms: O_20  and  C_21 
REMARK   18  A    between atoms: C_21  and  C_22 
REMARK   19  A    between atoms: C_22  and  C_23 
REMARK   20  A    between atoms: C_22  and  O_30 
REMARK   21  A    between atoms: C_24  and  O_29 
REMARK   22  A    between atoms: C_25  and  O_28 
ROOT
HETATM    1  C   UNL     1     -20.086  -4.034  -8.504  1.00  0.00     0.111 C 
ENDROOT
BRANCH   1   2
HETATM    2  C   UNL     1     -20.796  -3.726  -7.193  1.00  0.00     0.010 C 
BRANCH   2   3
HETATM    3  C   UNL     1     -20.406  -4.691  -6.076  1.00  0.00     0.000 C 
BRANCH   3   4
HETATM    4  C   UNL     1     -21.019  -6.063  -6.323  1.00  0.00     0.000 C 
BRANCH   4   5
HETATM    5  C   UNL     1     -20.856  -6.967  -5.105  1.00  0.00     0.000 C 
BRANCH   5   6
HETATM    6  C   UNL     1     -21.996  -6.759  -4.114  1.00  0.00     0.004 C 
BRANCH   6   7
HETATM    7  C   UNL     1     -21.481  -6.133  -2.823  1.00  0.00     0.027 C 
BRANCH   7   8
HETATM    8  C   UNL     1     -21.462  -7.126  -1.713  1.00  0.00    -0.031 C 
HETATM    9  C   UNL     1     -22.411  -7.162  -0.771  1.00  0.00    -0.031 C 
BRANCH   9  10
HETATM   10  C   UNL     1     -22.384  -8.161   0.337  1.00  0.00     0.027 C 
BRANCH  10  11
HETATM   11  C   UNL     1     -23.131  -9.424  -0.063  1.00  0.00     0.004 C 
BRANCH  11  12
HETATM   12  C   UNL     1     -22.315 -10.655   0.297  1.00  0.00     0.000 C 
BRANCH  12  13
HETATM   13  C   UNL     1     -20.834 -10.315   0.308  1.00  0.00     0.000 C 
BRANCH  13  14
HETATM   14  C   UNL     1     -20.114 -11.070  -0.799  1.00  0.00     0.000 C 
BRANCH  14  15
HETATM   15  C   UNL     1     -20.060 -10.223  -2.060  1.00  0.00    -0.000 C 
BRANCH  15  16
HETATM   16  C   UNL     1     -20.734 -10.947  -3.219  1.00  0.00    -0.005 C 
HETATM   17  C   UNL     1     -22.097 -10.345  -3.495  1.00  0.00     0.005 C 
ENDBRANCH  15  16
ENDBRANCH  14  15
ENDBRANCH  13  14
ENDBRANCH  12  13
ENDBRANCH  11  12
ENDBRANCH  10  11
ENDBRANCH   9  10
ENDBRANCH   7   8
ENDBRANCH   6   7
ENDBRANCH   5   6
ENDBRANCH   4   5
ENDBRANCH   3   4
ENDBRANCH   2   3
ENDBRANCH   1   2
BRANCH   1  18
HETATM   18  C   UNL     1     -21.107  -4.264  -9.614  1.00  0.00     0.258 C 
HETATM   19  O   UNL     1     -20.807  -4.600 -10.739  1.00  0.00    -0.265 OA
BRANCH  18  20
HETATM   20  O   UNL     1     -22.362  -3.944  -9.181  1.00  0.00    -0.319 OA
BRANCH  20  21
HETATM   21  C   UNL     1     -23.399  -4.445 -10.035  1.00  0.00     0.213 C 
BRANCH  21  22
HETATM   22  C   UNL     1     -24.167  -3.290 -10.671  1.00  0.00     0.174 C 
BRANCH  22  23
HETATM   23  C   UNL     1     -24.167  -3.378 -12.203  1.00  0.00     0.183 C 
HETATM   24  C   UNL     1     -23.050  -2.554 -12.855  1.00  0.00     0.180 C 
HETATM   25  C   UNL     1     -23.672  -2.033 -14.164  1.00  0.00     0.173 C 
HETATM   26  C   UNL     1     -25.081  -2.615 -14.162  1.00  0.00     0.202 C 
HETATM   27  O   UNL     1     -25.395  -2.923 -12.794  1.00  0.00    -0.378 OA
BRANCH  24  28
HETATM   28  O   UNL     1     -21.859  -3.330 -12.907  1.00  0.00    -0.390 OA
HETATM   29  H   UNL     1     -21.361  -3.189 -12.086  1.00  0.00     0.210 HD
ENDBRANCH  24  28
BRANCH  25  30
HETATM   30  O   UNL     1     -22.969  -2.275 -15.374  1.00  0.00    -0.391 OA
HETATM   31  H   UNL     1     -22.496  -3.125 -15.331  1.00  0.00     0.210 HD
ENDBRANCH  25  30
ENDBRANCH  22  23
BRANCH  22  32
HETATM   32  O   UNL     1     -25.502  -3.217 -10.159  1.00  0.00    -0.391 OA
HETATM   33  H   UNL     1     -25.576  -3.767  -9.361  1.00  0.00     0.210 HD
ENDBRANCH  22  32
ENDBRANCH  21  22
ENDBRANCH  20  21
ENDBRANCH  18  20
ENDBRANCH   1  18
TORSDOF 22
BEGIN_RES ARG D 557
REMARK  4 active torsions:
REMARK  status: ('A' for Active; 'I' for Inactive)
REMARK    1  A    between atoms: CA   and  CB  
REMARK    2  A    between atoms: CB   and  CG  
REMARK    3  A    between atoms: CG   and  CD  
REMARK    4  A    between atoms: CD   and  NE  
REMARK       I    between atoms: NE   and  CZ  
REMARK       I    between atoms: CZ   and  NH1 
REMARK       I    between atoms: CZ   and  NH2 
ROOT
ATOM      1  CA  ARG D 557     -26.217   2.705 -17.014  1.00 35.49     0.159 C 
ENDROOT
BRANCH   1   2
ATOM      2  CB  ARG D 557     -26.789   1.319 -17.183  1.00 35.49     0.034 C 
BRANCH   2   3
ATOM      3  CG  ARG D 557     -28.235   1.225 -17.417  1.00 35.49     0.027 C 
BRANCH   3   4
ATOM      4  CD  ARG D 557     -28.902   0.305 -16.467  1.00 35.49     0.116 C 
BRANCH   4   5
ATOM      5  NE  ARG D 557     -28.162  -0.915 -16.284  1.00 35.49    -0.212 N 
ATOM      6  CZ  ARG D 557     -28.483  -2.090 -16.777  1.00 35.49     0.666 C 
ATOM      7  NH1 ARG D 557     -29.567  -2.280 -17.506  1.00 35.49    -0.235 N 
ATOM      8  NH2 ARG D 557     -27.683  -3.086 -16.527  1.00 35.49    -0.235 N 
ATOM      9  HH  ARG D 557     -30.107  -1.639 -17.685  1.00 35.49     0.174 HD
ATOM     10  HH  ARG D 557     -29.725  -3.068 -17.804  1.00 35.49     0.174 HD
ATOM     11  HH  ARG D 557     -26.987  -2.932 -16.060  1.00 35.49     0.174 HD
ATOM     12  HH  ARG D 557     -27.856  -3.858 -16.832  1.00 35.49     0.174 HD
ATOM     13  HE  ARG D 557     -27.487  -0.900 -15.766  1.00 35.49     0.178 HD
ENDBRANCH   4   5
ENDBRANCH   3   4
ENDBRANCH   2   3
ENDBRANCH   1   2
END_RES ARG D 557
BEGIN_RES GLU D 570
REMARK  3 active torsions:
REMARK  status: ('A' for Active; 'I' for Inactive)
REMARK    5  A    between atoms: CA   and  CB  
REMARK    6  A    between atoms: CB   and  CG  
REMARK    7  A    between atoms: CG   and  CD  
ROOT
ATOM     14  CA  GLU D 570     -18.033  -6.348 -13.375  1.00 32.92     0.160 C 
ENDROOT
BRANCH  14  15
ATOM     15  CB  GLU D 570     -19.500  -6.345 -13.794  1.00 32.92     0.043 C 
BRANCH  15  16
ATOM     16  CG  GLU D 570     -19.813  -5.935 -15.187  1.00 32.92     0.100 C 
BRANCH  16  17
ATOM     17  CD  GLU D 570     -21.246  -5.488 -15.362  1.00 32.92     0.185 C 
ATOM     18  OE1 GLU D 570     -21.551  -4.812 -16.363  1.00 32.92    -0.647 OA
ATOM     19  OE2 GLU D 570     -22.068  -5.803 -14.480  1.00 32.92    -0.647 OA
ENDBRANCH  16  17
ENDBRANCH  15  16
ENDBRANCH  14  15
END_RES GLU D 570
ENDMDL
MODEL 3
REMARK VINA RESULT:      -7.8      3.184      5.762
REMARK  22 active torsions:
REMARK  status: ('A' for Active; 'I' for Inactive)
REMARK    1  A    between atoms: C_2  and  C_3 
REMARK    2  A    between atoms: C_3  and  C_4 
REMARK    3  A    between atoms: C_4  and  C_5 
REMARK    4  A    between atoms: C_5  and  C_6 
REMARK    5  A    between atoms: C_6  and  C_7 
REMARK    6  A    between atoms: C_7  and  C_8 
REMARK    7  A    between atoms: C_8  and  C_9 
REMARK    8  A    between atoms: C_10  and  C_11 
REMARK    9  A    between atoms: C_11  and  C_12 
REMARK   10  A    between atoms: C_12  and  C_13 
REMARK   11  A    between atoms: C_13  and  C_14 
REMARK   12  A    between atoms: C_14  and  C_15 
REMARK   13  A    between atoms: C_15  and  C_16 
REMARK   14  A    between atoms: C_16  and  C_17 
REMARK   15  A    between atoms: C_17  and  C_18 
REMARK   16  A    between atoms: C_18  and  O_20 
REMARK   17  A    between atoms: O_20  and  C_21 
REMARK   18  A    between atoms: C_21  and  C_22 
REMARK   19  A    between atoms: C_22  and  C_23 
REMARK   20  A    between atoms: C_22  and  O_30 
REMARK   21  A    between atoms: C_24  and  O_29 
REMARK   22  A    between atoms: C_25  and  O_28 
ROOT
HETATM    1  C   UNL     1     -23.477  -5.298 -14.553  1.00  0.00     0.111 C 
ENDROOT
BRANCH   1   2
HETATM    2  C   UNL     1     -23.419  -5.456 -13.039  1.00  0.00     0.010 C 
BRANCH   2   3
HETATM    3  C   UNL     1     -22.311  -4.619 -12.406  1.00  0.00     0.000 C 
BRANCH   3   4
HETATM    4  C   UNL     1     -22.660  -4.284 -10.962  1.00  0.00     0.000 C 
BRANCH   4   5
HETATM    5  C   UNL     1     -21.413  -4.280 -10.080  1.00  0.00     0.000 C 
BRANCH   5   6
HETATM    6  C   UNL     1     -21.784  -4.444  -8.610  1.00  0.00     0.004 C 
BRANCH   6   7
HETATM    7  C   UNL     1     -20.540  -4.383  -7.731  1.00  0.00     0.027 C 
BRANCH   7   8
HETATM    8  C   UNL     1     -20.753  -5.109  -6.447  1.00  0.00    -0.031 C 
HETATM    9  C   UNL     1     -20.327  -6.363  -6.258  1.00  0.00    -0.031 C 
BRANCH   9  10
HETATM   10  C   UNL     1     -20.544  -7.081  -4.968  1.00  0.00     0.027 C 
BRANCH  10  11
HETATM   11  C   UNL     1     -21.901  -6.726  -4.379  1.00  0.00     0.004 C 
BRANCH  11  12
HETATM   12  C   UNL     1     -21.738  -6.201  -2.961  1.00  0.00     0.000 C 
BRANCH  12  13
HETATM   13  C   UNL     1     -21.582  -7.360  -1.990  1.00  0.00     0.000 C 
BRANCH  13  14
HETATM   14  C   UNL     1     -22.227  -7.016  -0.657  1.00  0.00     0.000 C 
BRANCH  14  15
HETATM   15  C   UNL     1     -22.148  -8.207   0.286  1.00  0.00    -0.000 C 
BRANCH  15  16
HETATM   16  C   UNL     1     -23.496  -8.912   0.368  1.00  0.00    -0.005 C 
HETATM   17  C   UNL     1     -23.433 -10.255  -0.330  1.00  0.00     0.005 C 
ENDBRANCH  15  16
ENDBRANCH  14  15
ENDBRANCH  13  14
ENDBRANCH  12  13
ENDBRANCH  11  12
ENDBRANCH  10  11
ENDBRANCH   9  10
ENDBRANCH   7   8
ENDBRANCH   6   7
ENDBRANCH   5   6
ENDBRANCH   4   5
ENDBRANCH   3   4
ENDBRANCH   2   3
ENDBRANCH   1   2
BRANCH   1  18
HETATM   18  C   UNL     1     -24.616  -6.136 -15.126  1.00  0.00     0.258 C 
HETATM   19  O   UNL     1     -24.617  -7.348 -15.132  1.00  0.00    -0.265 OA
BRANCH  18  20
HETATM   20  O   UNL     1     -25.557  -5.331 -15.703  1.00  0.00    -0.319 OA
BRANCH  20  21
HETATM   21  C   UNL     1     -26.422  -6.031 -16.605  1.00  0.00     0.213 C 
BRANCH  21  22
HETATM   22  C   UNL     1     -27.807  -6.205 -15.986  1.00  0.00     0.174 C 
BRANCH  22  23
HETATM   23  C   UNL     1     -28.658  -4.936 -16.123  1.00  0.00     0.183 C 
HETATM   24  C   UNL     1     -29.936  -5.151 -16.943  1.00  0.00     0.180 C 
HETATM   25  C   UNL     1     -30.137  -3.823 -17.697  1.00  0.00     0.173 C 
HETATM   26  C   UNL     1     -28.973  -2.954 -17.234  1.00  0.00     0.202 C 
HETATM   27  O   UNL     1     -27.958  -3.852 -16.755  1.00  0.00    -0.378 OA
BRANCH  24  28
HETATM   28  O   UNL     1     -30.968  -5.635 -16.091  1.00  0.00    -0.390 OA
HETATM   29  H   UNL     1     -31.610  -4.922 -15.944  1.00  0.00     0.210 HD
ENDBRANCH  24  28
BRANCH  25  30
HETATM   30  O   UNL     1     -31.397  -3.178 -17.579  1.00  0.00    -0.391 OA
HETATM   31  H   UNL     1     -31.292  -2.211 -17.625  1.00  0.00     0.210 HD
ENDBRANCH  25  30
ENDBRANCH  22  23
BRANCH  22  32
HETATM   32  O   UNL     1     -28.480  -7.339 -16.542  1.00  0.00    -0.391 OA
HETATM   33  H   UNL     1     -28.487  -7.271 -17.512  1.00  0.00     0.210 HD
ENDBRANCH  22  32
ENDBRANCH  21  22
ENDBRANCH  20  21
ENDBRANCH  18  20
ENDBRANCH   1  18
TORSDOF 22
BEGIN_RES ARG D 557
REMARK  4 active torsions:
REMARK  status: ('A' for Active; 'I' for Inactive)
REMARK    1  A    between atoms: CA   and  CB  
REMARK    2  A    between atoms: CB   and  CG  
REMARK    3  A    between atoms: CG   and  CD  
REMARK    4  A    between atoms: CD   and  NE  
REMARK       I    between atoms: NE   and  CZ  
REMARK       I    between atoms: CZ   and  NH1 
REMARK       I    between atoms: CZ   and  NH2 
ROOT
ATOM      1  CA  ARG D 557     -26.217   2.705 -17.014  1.00 35.49     0.159 C 
ENDROOT
BRANCH   1   2
ATOM      2  CB  ARG D 557     -26.789   1.319 -17.183  1.00 35.49     0.034 C 
BRANCH   2   3
ATOM      3  CG  ARG D 557     -25.838   0.202 -17.137  1.00 35.49     0.027 C 
BRANCH   3   4
ATOM      4  CD  ARG D 557     -24.730   0.442 -16.184  1.00 35.49     0.116 C 
BRANCH   4   5
ATOM      5  NE  ARG D 557     -24.845  -0.373 -15.003  1.00 35.49    -0.212 N 
ATOM      6  CZ  ARG D 557     -24.043  -1.359 -14.670  1.00 35.49     0.666 C 
ATOM      7  NH1 ARG D 557     -23.020  -1.726 -15.420  1.00 35.49    -0.235 N 
ATOM      8  NH2 ARG D 557     -24.284  -1.977 -13.550  1.00 35.49    -0.235 N 
ATOM      9  HH  ARG D 557     -22.841  -1.332 -16.160  1.00 35.49     0.174 HD
ATOM     10  HH  ARG D 557     -22.529  -2.374 -15.151  1.00 35.49     0.174 HD
ATOM     11  HH  ARG D 557     -24.947  -1.714 -13.083  1.00 35.49     0.174 HD
ATOM     12  HH  ARG D 557     -23.786  -2.616 -13.300  1.00 35.49     0.174 HD
ATOM     13  HE  ARG D 557     -25.519  -0.253 -14.499  1.00 35.49     0.178 HD
ENDBRANCH   4   5
ENDBRANCH   3   4
ENDBRANCH   2   3
ENDBRANCH   1   2
END_RES ARG D 557
BEGIN_RES GLU D 570
REMARK  3 active torsions:
REMARK  status: ('A' for Active; 'I' for Inactive)
REMARK    5  A    between atoms: CA   and  CB  
REMARK    6  A    between atoms: CB   and  CG  
REMARK    7  A    between atoms: CG   and  CD  
ROOT
ATOM     14  CA  GLU D 570     -18.033  -6.348 -13.375  1.00 32.92     0.160 C 
ENDROOT
BRANCH  14  15
ATOM     15  CB  GLU D 570     -19.500  -6.345 -13.794  1.00 32.92     0.043 C 
BRANCH  15  16
ATOM     16  CG  GLU D 570     -20.081  -7.630 -14.263  1.00 32.92     0.100 C 
BRANCH  16  17
ATOM     17  CD  GLU D 570     -20.709  -7.527 -15.634  1.00 32.92     0.185 C 
ATOM     18  OE1 GLU D 570     -21.298  -8.518 -16.105  1.00 32.92    -0.647 OA
ATOM     19  OE2 GLU D 570     -20.596  -6.448 -16.249  1.00 32.92    -0.647 OA
ENDBRANCH  16  17
ENDBRANCH  15  16
ENDBRANCH  14  15
END_RES GLU D 570
ENDMDL
MODEL 4
REMARK VINA RESULT:      -7.5      7.732     12.538
REMARK  22 active torsions:
REMARK  status: ('A' for Active; 'I' for Inactive)
REMARK    1  A    between atoms: C_2  and  C_3 
REMARK    2  A    between atoms: C_3  and  C_4 
REMARK    3  A    between atoms: C_4  and  C_5 
REMARK    4  A    between atoms: C_5  and  C_6 
REMARK    5  A    between atoms: C_6  and  C_7 
REMARK    6  A    between atoms: C_7  and  C_8 
REMARK    7  A    between atoms: C_8  and  C_9 
REMARK    8  A    between atoms: C_10  and  C_11 
REMARK    9  A    between atoms: C_11  and  C_12 
REMARK   10  A    between atoms: C_12  and  C_13 
REMARK   11  A    between atoms: C_13  and  C_14 
REMARK   12  A    between atoms: C_14  and  C_15 
REMARK   13  A    between atoms: C_15  and  C_16 
REMARK   14  A    between atoms: C_16  and  C_17 
REMARK   15  A    between atoms: C_17  and  C_18 
REMARK   16  A    between atoms: C_18  and  O_20 
REMARK   17  A    between atoms: O_20  and  C_21 
REMARK   18  A    between atoms: C_21  and  C_22 
REMARK   19  A    between atoms: C_22  and  C_23 
REMARK   20  A    between atoms: C_22  and  O_30 
REMARK   21  A    between atoms: C_24  and  O_29 
REMARK   22  A    between atoms: C_25  and  O_28 
ROOT
HETATM    1  C   UNL     1     -33.648  -3.734 -16.859  1.00  0.00     0.111 C 
ENDROOT
BRANCH   1   2
HETATM    2  C   UNL     1     -34.329  -2.423 -17.231  1.00  0.00     0.010 C 
BRANCH   2   3
HETATM    3  C   UNL     1     -35.032  -1.771 -16.044  1.00  0.00     0.000 C 
BRANCH   3   4
HETATM    4  C   UNL     1     -36.149  -0.856 -16.527  1.00  0.00     0.000 C 
BRANCH   4   5
HETATM    5  C   UNL     1     -36.177   0.447 -15.734  1.00  0.00     0.000 C 
BRANCH   5   6
HETATM    6  C   UNL     1     -36.389   0.178 -14.248  1.00  0.00     0.004 C 
BRANCH   6   7
HETATM    7  C   UNL     1     -35.173   0.619 -13.441  1.00  0.00     0.027 C 
BRANCH   7   8
HETATM    8  C   UNL     1     -34.675  -0.482 -12.572  1.00  0.00    -0.031 C 
HETATM    9  C   UNL     1     -35.493  -1.209 -11.801  1.00  0.00    -0.031 C 
BRANCH   9  10
HETATM   10  C   UNL     1     -34.985  -2.311 -10.934  1.00  0.00     0.027 C 
BRANCH  10  11
HETATM   11  C   UNL     1     -33.466  -2.279 -10.862  1.00  0.00     0.004 C 
BRANCH  11  12
HETATM   12  C   UNL     1     -32.882  -3.533 -11.495  1.00  0.00     0.000 C 
BRANCH  12  13
HETATM   13  C   UNL     1     -33.974  -4.569 -11.705  1.00  0.00     0.000 C 
BRANCH  13  14
HETATM   14  C   UNL     1     -33.576  -5.887 -11.059  1.00  0.00     0.000 C 
BRANCH  14  15
HETATM   15  C   UNL     1     -34.591  -6.277  -9.996  1.00  0.00    -0.000 C 
BRANCH  15  16
HETATM   16  C   UNL     1     -35.000  -7.735 -10.159  1.00  0.00    -0.005 C 
HETATM   17  C   UNL     1     -33.835  -8.649  -9.838  1.00  0.00     0.005 C 
ENDBRANCH  15  16
ENDBRANCH  14  15
ENDBRANCH  13  14
ENDBRANCH  12  13
ENDBRANCH  11  12
ENDBRANCH  10  11
ENDBRANCH   9  10
ENDBRANCH   7   8
ENDBRANCH   6   7
ENDBRANCH   5   6
ENDBRANCH   4   5
ENDBRANCH   3   4
ENDBRANCH   2   3
ENDBRANCH   1   2
BRANCH   1  18
HETATM   18  C   UNL     1     -32.146  -3.635 -17.106  1.00  0.00     0.258 C 
HETATM   19  O   UNL     1     -31.657  -2.972 -17.995  1.00  0.00    -0.265 OA
BRANCH  18  20
HETATM   20  O   UNL     1     -31.468  -4.465 -16.260  1.00  0.00    -0.319 OA
BRANCH  20  21
HETATM   21  C   UNL     1     -30.983  -5.652 -16.900  1.00  0.00     0.213 C 
BRANCH  21  22
HETATM   22  C   UNL     1     -29.819  -6.244 -16.111  1.00  0.00     0.174 C 
BRANCH  22  23
HETATM   23  C   UNL     1     -28.677  -6.698 -17.029  1.00  0.00     0.183 C 
HETATM   24  C   UNL     1     -27.286  -6.441 -16.436  1.00  0.00     0.180 C 
HETATM   25  C   UNL     1     -26.409  -6.090 -17.653  1.00  0.00     0.173 C 
HETATM   26  C   UNL     1     -27.361  -6.193 -18.838  1.00  0.00     0.202 C 
HETATM   27  O   UNL     1     -28.689  -6.046 -18.310  1.00  0.00    -0.378 OA
BRANCH  24  28
HETATM   28  O   UNL     1     -26.919  -7.533 -15.601  1.00  0.00    -0.390 OA
HETATM   29  H   UNL     1     -26.088  -7.314 -15.151  1.00  0.00     0.210 HD
ENDBRANCH  24  28
BRANCH  25  30
HETATM   30  O   UNL     1     -25.206  -6.823 -17.836  1.00  0.00    -0.391 OA
HETATM   31  H   UNL     1     -24.435  -6.231 -17.791  1.00  0.00     0.210 HD
ENDBRANCH  25  30
ENDBRANCH  22  23
BRANCH  22  32
HETATM   32  O   UNL     1     -29.348  -5.323 -15.121  1.00  0.00    -0.391 OA
HETATM   33  H   UNL     1     -29.481  -4.413 -15.433  1.00  0.00     0.210 HD
ENDBRANCH  22  32
ENDBRANCH  21  22
ENDBRANCH  20  21
ENDBRANCH  18  20
ENDBRANCH   1  18
TORSDOF 22
BEGIN_RES ARG D 557
REMARK  4 active torsions:
REMARK  status: ('A' for Active; 'I' for Inactive)
REMARK    1  A    between atoms: CA   and  CB  
REMARK    2  A    between atoms: CB   and  CG  
REMARK    3  A    between atoms: CG   and  CD  
REMARK    4  A    between atoms: CD   and  NE  
REMARK       I    between atoms: NE   and  CZ  
REMARK       I    between atoms: CZ   and  NH1 
REMARK       I    between atoms: CZ   and  NH2 
ROOT
ATOM      1  CA  ARG D 557     -26.217   2.705 -17.014  1.00 35.49     0.159 C 
ENDROOT
BRANCH   1   2
ATOM      2  CB  ARG D 557     -26.789   1.319 -17.183  1.00 35.49     0.034 C 
BRANCH   2   3
ATOM      3  CG  ARG D 557     -28.242   1.180 -17.027  1.00 35.49     0.027 C 
BRANCH   3   4
ATOM      4  CD  ARG D 557     -28.685  -0.231 -17.099  1.00 35.49     0.116 C 
BRANCH   4   5
ATOM      5  NE  ARG D 557     -27.807  -1.112 -16.376  1.00 35.49    -0.212 N 
ATOM      6  CZ  ARG D 557     -27.810  -2.425 -16.445  1.00 35.49     0.666 C 
ATOM      7  NH1 ARG D 557     -28.659  -3.094 -17.202  1.00 35.49    -0.235 N 
ATOM      8  NH2 ARG D 557     -26.927  -3.065 -15.734  1.00 35.49    -0.235 N 
ATOM      9  HH  ARG D 557     -29.247  -2.693 -17.680  1.00 35.49     0.174 HD
ATOM     10  HH  ARG D 557     -28.612  -3.949 -17.209  1.00 35.49     0.174 HD
ATOM     11  HH  ARG D 557     -26.386  -2.606 -15.260  1.00 35.49     0.174 HD
ATOM     12  HH  ARG D 557     -26.895  -3.912 -15.755  1.00 35.49     0.174 HD
ATOM     13  HE  ARG D 557     -27.275  -0.769 -15.808  1.00 35.49     0.178 HD
ENDBRANCH   4   5
ENDBRANCH   3   4
ENDBRANCH   2   3
ENDBRANCH   1   2
END_RES ARG D 557
BEGIN_RES GLU D 570
REMARK  3 active torsions:
REMARK  status: ('A' for Active; 'I' for Inactive)
REMARK    5  A    between atoms: CA   and  CB  
REMARK    6  A    between atoms: CB   and  CG  
REMARK    7  A    between atoms: CG   and  CD  
ROOT
ATOM     14  CA  GLU D 570     -18.033  -6.348 -13.375  1.00 32.92     0.160 C 
ENDROOT
BRANCH  14  15
ATOM     15  CB  GLU D 570     -19.500  -6.345 -13.794  1.00 32.92     0.043 C 
BRANCH  15  16
ATOM     16  CG  GLU D 570     -20.448  -5.559 -12.963  1.00 32.92     0.100 C 
BRANCH  16  17
ATOM     17  CD  GLU D 570     -21.708  -5.179 -13.705  1.00 32.92     0.185 C 
ATOM     18  OE1 GLU D 570     -21.825  -5.502 -14.903  1.00 32.92    -0.647 OA
ATOM     19  OE2 GLU D 570     -22.580  -4.538 -13.087  1.00 32.92    -0.647 OA
ENDBRANCH  16  17
ENDBRANCH  15  16
ENDBRANCH  14  15
END_RES GLU D 570
ENDMDL
MODEL 5
REMARK VINA RESULT:      -7.5      2.208      3.908
REMARK  22 active torsions:
REMARK  status: ('A' for Active; 'I' for Inactive)
REMARK    1  A    between atoms: C_2  and  C_3 
REMARK    2  A    between atoms: C_3  and  C_4 
REMARK    3  A    between atoms: C_4  and  C_5 
REMARK    4  A    between atoms: C_5  and  C_6 
REMARK    5  A    between atoms: C_6  and  C_7 
REMARK    6  A    between atoms: C_7  and  C_8 
REMARK    7  A    between atoms: C_8  and  C_9 
REMARK    8  A    between atoms: C_10  and  C_11 
REMARK    9  A    between atoms: C_11  and  C_12 
REMARK   10  A    between atoms: C_12  and  C_13 
REMARK   11  A    between atoms: C_13  and  C_14 
REMARK   12  A    between atoms: C_14  and  C_15 
REMARK   13  A    between atoms: C_15  and  C_16 
REMARK   14  A    between atoms: C_16  and  C_17 
REMARK   15  A    between atoms: C_17  and  C_18 
REMARK   16  A    between atoms: C_18  and  O_20 
REMARK   17  A    between atoms: O_20  and  C_21 
REMARK   18  A    between atoms: C_21  and  C_22 
REMARK   19  A    between atoms: C_22  and  C_23 
REMARK   20  A    between atoms: C_22  and  O_30 
REMARK   21  A    between atoms: C_24  and  O_29 
REMARK   22  A    between atoms: C_25  and  O_28 
ROOT
HETATM    1  C   UNL     1     -20.647  -6.412  -5.280  1.00  0.00     0.111 C 
ENDROOT
BRANCH   1   2
HETATM    2  C   UNL     1     -21.075  -7.873  -5.231  1.00  0.00     0.010 C 
BRANCH   2   3
HETATM    3  C   UNL     1     -21.377  -8.347  -3.812  1.00  0.00     0.000 C 
BRANCH   3   4
HETATM    4  C   UNL     1     -21.165  -7.213  -2.818  1.00  0.00     0.000 C 
BRANCH   4   5
HETATM    5  C   UNL     1     -21.256  -7.715  -1.379  1.00  0.00     0.000 C 
BRANCH   5   6
HETATM    6  C   UNL     1     -22.396  -7.031  -0.633  1.00  0.00     0.004 C 
BRANCH   6   7
HETATM    7  C   UNL     1     -22.975  -7.956   0.431  1.00  0.00     0.027 C 
BRANCH   7   8
HETATM    8  C   UNL     1     -22.833  -9.386   0.038  1.00  0.00    -0.031 C 
HETATM    9  C   UNL     1     -23.849 -10.253   0.122  1.00  0.00    -0.031 C 
BRANCH   9  10
HETATM   10  C   UNL     1     -23.697 -11.684  -0.275  1.00  0.00     0.027 C 
BRANCH  10  11
HETATM   11  C   UNL     1     -23.955 -11.855  -1.764  1.00  0.00     0.004 C 
BRANCH  11  12
HETATM   12  C   UNL     1     -22.880 -12.732  -2.387  1.00  0.00     0.000 C 
BRANCH  12  13
HETATM   13  C   UNL     1     -21.775 -11.869  -2.971  1.00  0.00     0.000 C 
BRANCH  13  14
HETATM   14  C   UNL     1     -20.438 -12.235  -2.346  1.00  0.00     0.000 C 
BRANCH  14  15
HETATM   15  C   UNL     1     -19.863 -11.040  -1.603  1.00  0.00    -0.000 C 
BRANCH  15  16
HETATM   16  C   UNL     1     -19.807 -11.319  -0.106  1.00  0.00    -0.005 C 
HETATM   17  C   UNL     1     -20.123 -12.775   0.171  1.00  0.00     0.005 C 
ENDBRANCH  15  16
ENDBRANCH  14  15
ENDBRANCH  13  14
ENDBRANCH  12  13
ENDBRANCH  11  12
ENDBRANCH  10  11
ENDBRANCH   9  10
ENDBRANCH   7   8
ENDBRANCH   6   7
ENDBRANCH   5   6
ENDBRANCH   4   5
ENDBRANCH   3   4
ENDBRANCH   2   3
ENDBRANCH   1   2
BRANCH   1  18
HETATM   18  C   UNL     1     -21.763  -5.556  -5.871  1.00  0.00     0.258 C 
HETATM   19  O   UNL     1     -22.938  -5.736  -5.637  1.00  0.00    -0.265 OA
BRANCH  18  20
HETATM   20  O   UNL     1     -21.252  -4.650  -6.756  1.00  0.00    -0.319 OA
BRANCH  20  21
HETATM   21  C   UNL     1     -21.666  -4.884  -8.107  1.00  0.00     0.213 C 
BRANCH  21  22
HETATM   22  C   UNL     1     -22.612  -3.780  -8.571  1.00  0.00     0.174 C 
BRANCH  22  23
HETATM   23  C   UNL     1     -22.575  -3.598 -10.094  1.00  0.00     0.183 C 
HETATM   24  C   UNL     1     -23.640  -4.421 -10.828  1.00  0.00     0.180 C 
HETATM   25  C   UNL     1     -22.963  -4.835 -12.148  1.00  0.00     0.173 C 
HETATM   26  C   UNL     1     -21.579  -4.201 -12.069  1.00  0.00     0.202 C 
HETATM   27  O   UNL     1     -21.314  -3.968 -10.677  1.00  0.00    -0.378 OA
BRANCH  24  28
HETATM   28  O   UNL     1     -24.859  -3.690 -10.867  1.00  0.00    -0.390 OA
HETATM   29  H   UNL     1     -25.569  -4.284 -11.160  1.00  0.00     0.210 HD
ENDBRANCH  24  28
BRANCH  25  30
HETATM   30  O   UNL     1     -23.643  -4.546 -13.361  1.00  0.00    -0.391 OA
HETATM   31  H   UNL     1     -23.193  -3.829 -13.842  1.00  0.00     0.210 HD
ENDBRANCH  25  30
ENDBRANCH  22  23
BRANCH  22  32
HETATM   32  O   UNL     1     -23.947  -4.021  -8.114  1.00  0.00    -0.391 OA
HETATM   33  H   UNL     1     -23.921  -4.419  -7.228  1.00  0.00     0.210 HD
ENDBRANCH  22  32
ENDBRANCH  21  22
ENDBRANCH  20  21
ENDBRANCH  18  20
ENDBRANCH   1  18
TORSDOF 22
BEGIN_RES ARG D 557
REMARK  4 active torsions:
REMARK  status: ('A' for Active; 'I' for Inactive)
REMARK    1  A    between atoms: CA   and  CB  
REMARK    2  A    between atoms: CB   and  CG  
REMARK    3  A    between atoms: CG   and  CD  
REMARK    4  A    between atoms: CD   and  NE  
REMARK       I    between atoms: NE   and  CZ  
REMARK       I    between atoms: CZ   and  NH1 
REMARK       I    between atoms: CZ   and  NH2 
ROOT
ATOM      1  CA  ARG D 557     -26.217   2.705 -17.014  1.00 35.49     0.159 C 
ENDROOT
BRANCH   1   2
ATOM      2  CB  ARG D 557     -26.789   1.319 -17.183  1.00 35.49     0.034 C 
BRANCH   2   3
ATOM      3  CG  ARG D 557     -25.827   0.213 -17.270  1.00 35.49     0.027 C 
BRANCH   3   4
ATOM      4  CD  ARG D 557     -24.716   0.355 -16.302  1.00 35.49     0.116 C 
BRANCH   4   5
ATOM      5  NE  ARG D 557     -24.957  -0.382 -15.089  1.00 35.49    -0.212 N 
ATOM      6  CZ  ARG D 557     -24.226  -1.376 -14.636  1.00 35.49     0.666 C 
ATOM      7  NH1 ARG D 557     -23.165  -1.826 -15.279  1.00 35.49    -0.235 N 
ATOM      8  NH2 ARG D 557     -24.580  -1.914 -13.505  1.00 35.49    -0.235 N 
ATOM      9  HH  ARG D 557     -22.912  -1.485 -16.023  1.00 35.49     0.174 HD
ATOM     10  HH  ARG D 557     -22.725  -2.476 -14.934  1.00 35.49     0.174 HD
ATOM     11  HH  ARG D 557     -25.266  -1.597 -13.108  1.00 35.49     0.174 HD
ATOM     12  HH  ARG D 557     -24.131  -2.555 -13.179  1.00 35.49     0.174 HD
ATOM     13  HE  ARG D 557     -25.662  -0.205 -14.648  1.00 35.49     0.178 HD
ENDBRANCH   4   5
ENDBRANCH   3   4
ENDBRANCH   2   3
ENDBRANCH   1   2
END_RES ARG D 557
BEGIN_RES GLU D 570
REMARK  3 active torsions:
REMARK  status: ('A' for Active; 'I' for Inactive)
REMARK    5  A    between atoms: CA   and  CB  
REMARK    6  A    between atoms: CB   and  CG  
REMARK    7  A    between atoms: CG   and  CD  
ROOT
ATOM     14  CA  GLU D 570     -18.033  -6.348 -13.375  1.00 32.92     0.160 C 
ENDROOT
BRANCH  14  15
ATOM     15  CB  GLU D 570     -19.500  -6.345 -13.794  1.00 32.92     0.043 C 
BRANCH  15  16
ATOM     16  CG  GLU D 570     -19.815  -5.912 -15.180  1.00 32.92     0.100 C 
BRANCH  16  17
ATOM     17  CD  GLU D 570     -21.289  -5.657 -15.397  1.00 32.92     0.185 C 
ATOM     18  OE1 GLU D 570     -21.660  -4.521 -15.751  1.00 32.92    -0.647 OA
ATOM     19  OE2 GLU D 570     -22.081  -6.598 -15.194  1.00 32.92    -0.647 OA
ENDBRANCH  16  17
ENDBRANCH  15  16
ENDBRANCH  14  15
END_RES GLU D 570
ENDMDL
MODEL 6
REMARK VINA RESULT:      -7.3      1.252      2.209
REMARK  22 active torsions:
REMARK  status: ('A' for Active; 'I' for Inactive)
REMARK    1  A    between atoms: C_2  and  C_3 
REMARK    2  A    between atoms: C_3  and  C_4 
REMARK    3  A    between atoms: C_4  and  C_5 
REMARK    4  A    between atoms: C_5  and  C_6 
REMARK    5  A    between atoms: C_6  and  C_7 
REMARK    6  A    between atoms: C_7  and  C_8 
REMARK    7  A    between atoms: C_8  and  C_9 
REMARK    8  A    between atoms: C_10  and  C_11 
REMARK    9  A    between atoms: C_11  and  C_12 
REMARK   10  A    between atoms: C_12  and  C_13 
REMARK   11  A    between atoms: C_13  and  C_14 
REMARK   12  A    between atoms: C_14  and  C_15 
REMARK   13  A    between atoms: C_15  and  C_16 
REMARK   14  A    between atoms: C_16  and  C_17 
REMARK   15  A    between atoms: C_17  and  C_18 
REMARK   16  A    between atoms: C_18  and  O_20 
REMARK   17  A    between atoms: O_20  and  C_21 
REMARK   18  A    between atoms: C_21  and  C_22 
REMARK   19  A    between atoms: C_22  and  C_23 
REMARK   20  A    between atoms: C_22  and  O_30 
REMARK   21  A    between atoms: C_24  and  O_29 
REMARK   22  A    between atoms: C_25  and  O_28 
ROOT
HETATM    1  C   UNL     1     -19.952  -4.360  -8.677  1.00  0.00     0.111 C 
ENDROOT
BRANCH   1   2
HETATM    2  C   UNL     1     -20.362  -5.241  -7.505  1.00  0.00     0.010 C 
BRANCH   2   3
HETATM    3  C   UNL     1     -20.497  -4.457  -6.203  1.00  0.00     0.000 C 
BRANCH   3   4
HETATM    4  C   UNL     1     -20.668  -5.409  -5.026  1.00  0.00     0.000 C 
BRANCH   4   5
HETATM    5  C   UNL     1     -21.454  -6.652  -5.432  1.00  0.00     0.000 C 
BRANCH   5   6
HETATM    6  C   UNL     1     -21.260  -7.775  -4.419  1.00  0.00     0.004 C 
BRANCH   6   7
HETATM    7  C   UNL     1     -21.092  -9.116  -5.125  1.00  0.00     0.027 C 
BRANCH   7   8
HETATM    8  C   UNL     1     -21.722 -10.217  -4.346  1.00  0.00    -0.031 C 
HETATM    9  C   UNL     1     -21.041 -10.933  -3.443  1.00  0.00    -0.031 C 
BRANCH   9  10
HETATM   10  C   UNL     1     -21.681 -12.034  -2.666  1.00  0.00     0.027 C 
BRANCH  10  11
HETATM   11  C   UNL     1     -20.813 -12.427  -1.480  1.00  0.00     0.004 C 
BRANCH  11  12
HETATM   12  C   UNL     1     -20.035 -11.222  -0.975  1.00  0.00     0.000 C 
BRANCH  12  13
HETATM   13  C   UNL     1     -20.217 -11.074   0.526  1.00  0.00     0.000 C 
BRANCH  13  14
HETATM   14  C   UNL     1     -21.068  -9.851   0.832  1.00  0.00     0.000 C 
BRANCH  14  15
HETATM   15  C   UNL     1     -21.097  -8.919  -0.369  1.00  0.00    -0.000 C 
BRANCH  15  16
HETATM   16  C   UNL     1     -21.957  -7.696  -0.074  1.00  0.00    -0.005 C 
HETATM   17  C   UNL     1     -23.290  -8.117   0.510  1.00  0.00     0.005 C 
ENDBRANCH  15  16
ENDBRANCH  14  15
ENDBRANCH  13  14
ENDBRANCH  12  13
ENDBRANCH  11  12
ENDBRANCH  10  11
ENDBRANCH   9  10
ENDBRANCH   7   8
ENDBRANCH   6   7
ENDBRANCH   5   6
ENDBRANCH   4   5
ENDBRANCH   3   4
ENDBRANCH   2   3
ENDBRANCH   1   2
BRANCH   1  18
HETATM   18  C   UNL     1     -21.009  -4.419  -9.776  1.00  0.00     0.258 C 
HETATM   19  O   UNL     1     -20.760  -4.695 -10.929  1.00  0.00    -0.265 OA
BRANCH  18  20
HETATM   20  O   UNL     1     -22.224  -4.027  -9.290  1.00  0.00    -0.319 OA
BRANCH  20  21
HETATM   21  C   UNL     1     -23.325  -4.493 -10.080  1.00  0.00     0.213 C 
BRANCH  21  22
HETATM   22  C   UNL     1     -24.097  -3.313 -10.664  1.00  0.00     0.174 C 
BRANCH  22  23
HETATM   23  C   UNL     1     -24.169  -3.378 -12.195  1.00  0.00     0.183 C 
HETATM   24  C   UNL     1     -23.070  -2.561 -12.887  1.00  0.00     0.180 C 
HETATM   25  C   UNL     1     -23.744  -2.012 -14.159  1.00  0.00     0.173 C 
HETATM   26  C   UNL     1     -25.160  -2.573 -14.099  1.00  0.00     0.202 C 
HETATM   27  O   UNL     1     -25.415  -2.896 -12.723  1.00  0.00    -0.378 OA
BRANCH  24  28
HETATM   28  O   UNL     1     -21.895  -3.354 -13.004  1.00  0.00    -0.390 OA
HETATM   29  H   UNL     1     -21.977  -4.120 -12.415  1.00  0.00     0.210 HD
ENDBRANCH  24  28
BRANCH  25  30
HETATM   30  O   UNL     1     -23.101  -2.246 -15.403  1.00  0.00    -0.391 OA
HETATM   31  H   UNL     1     -23.680  -2.755 -15.997  1.00  0.00     0.210 HD
ENDBRANCH  25  30
ENDBRANCH  22  23
BRANCH  22  32
HETATM   32  O   UNL     1     -25.404  -3.218 -10.090  1.00  0.00    -0.391 OA
HETATM   33  H   UNL     1     -26.061  -3.086 -10.795  1.00  0.00     0.210 HD
ENDBRANCH  22  32
ENDBRANCH  21  22
ENDBRANCH  20  21
ENDBRANCH  18  20
ENDBRANCH   1  18
TORSDOF 22
BEGIN_RES ARG D 557
REMARK  4 active torsions:
REMARK  status: ('A' for Active; 'I' for Inactive)
REMARK    1  A    between atoms: CA   and  CB  
REMARK    2  A    between atoms: CB   and  CG  
REMARK    3  A    between atoms: CG   and  CD  
REMARK    4  A    between atoms: CD   and  NE  
REMARK       I    between atoms: NE   and  CZ  
REMARK       I    between atoms: CZ   and  NH1 
REMARK       I    between atoms: CZ   and  NH2 
ROOT
ATOM      1  CA  ARG D 557     -26.217   2.705 -17.014  1.00 35.49     0.159 C 
ENDROOT
BRANCH   1   2
ATOM      2  CB  ARG D 557     -26.789   1.319 -17.183  1.00 35.49     0.034 C 
BRANCH   2   3
ATOM      3  CG  ARG D 557     -28.224   1.228 -17.479  1.00 35.49     0.027 C 
BRANCH   3   4
ATOM      4  CD  ARG D 557     -28.920   0.257 -16.605  1.00 35.49     0.116 C 
BRANCH   4   5
ATOM      5  NE  ARG D 557     -28.145  -0.938 -16.397  1.00 35.49    -0.212 N 
ATOM      6  CZ  ARG D 557     -28.472  -2.145 -16.800  1.00 35.49     0.666 C 
ATOM      7  NH1 ARG D 557     -29.594  -2.397 -17.450  1.00 35.49    -0.235 N 
ATOM      8  NH2 ARG D 557     -27.638  -3.111 -16.543  1.00 35.49    -0.235 N 
ATOM      9  HH  ARG D 557     -30.156  -1.776 -17.632  1.00 35.49     0.174 HD
ATOM     10  HH  ARG D 557     -29.752  -3.204 -17.690  1.00 35.49     0.174 HD
ATOM     11  HH  ARG D 557     -26.918  -2.918 -16.128  1.00 35.49     0.174 HD
ATOM     12  HH  ARG D 557     -27.812  -3.903 -16.791  1.00 35.49     0.174 HD
ATOM     13  HE  ARG D 557     -27.441  -0.880 -15.923  1.00 35.49     0.178 HD
ENDBRANCH   4   5
ENDBRANCH   3   4
ENDBRANCH   2   3
ENDBRANCH   1   2
END_RES ARG D 557
BEGIN_RES GLU D 570
REMARK  3 active torsions:
REMARK  status: ('A' for Active; 'I' for Inactive)
REMARK    5  A    between atoms: CA   and  CB  
REMARK    6  A    between atoms: CB   and  CG  
REMARK    7  A    between atoms: CG   and  CD  
ROOT
ATOM     14  CA  GLU D 570     -18.033  -6.348 -13.375  1.00 32.92     0.160 C 
ENDROOT
BRANCH  14  15
ATOM     15  CB  GLU D 570     -19.500  -6.345 -13.794  1.00 32.92     0.043 C 
BRANCH  15  16
ATOM     16  CG  GLU D 570     -19.804  -6.055 -15.219  1.00 32.92     0.100 C 
BRANCH  16  17
ATOM     17  CD  GLU D 570     -21.271  -5.792 -15.467  1.00 32.92     0.185 C 
ATOM     18  OE1 GLU D 570     -22.075  -6.742 -15.406  1.00 32.92    -0.647 OA
ATOM     19  OE2 GLU D 570     -21.618  -4.626 -15.740  1.00 32.92    -0.647 OA
ENDBRANCH  16  17
ENDBRANCH  15  16
ENDBRANCH  14  15
END_RES GLU D 570
ENDMDL
MODEL 7
REMARK VINA RESULT:      -7.3      1.608      3.592
REMARK  22 active torsions:
REMARK  status: ('A' for Active; 'I' for Inactive)
REMARK    1  A    between atoms: C_2  and  C_3 
REMARK    2  A    between atoms: C_3  and  C_4 
REMARK    3  A    between atoms: C_4  and  C_5 
REMARK    4  A    between atoms: C_5  and  C_6 
REMARK    5  A    between atoms: C_6  and  C_7 
REMARK    6  A    between atoms: C_7  and  C_8 
REMARK    7  A    between atoms: C_8  and  C_9 
REMARK    8  A    between atoms: C_10  and  C_11 
REMARK    9  A    between atoms: C_11  and  C_12 
REMARK   10  A    between atoms: C_12  and  C_13 
REMARK   11  A    between atoms: C_13  and  C_14 
REMARK   12  A    between atoms: C_14  and  C_15 
REMARK   13  A    between atoms: C_15  and  C_16 
REMARK   14  A    between atoms: C_16  and  C_17 
REMARK   15  A    between atoms: C_17  and  C_18 
REMARK   16  A    between atoms: C_18  and  O_20 
REMARK   17  A    between atoms: O_20  and  C_21 
REMARK   18  A    between atoms: C_21  and  C_22 
REMARK   19  A    between atoms: C_22  and  C_23 
REMARK   20  A    between atoms: C_22  and  O_30 
REMARK   21  A    between atoms: C_24  and  O_29 
REMARK   22  A    between atoms: C_25  and  O_28 
ROOT
HETATM    1  C   UNL     1     -20.604  -6.649  -5.009  1.00  0.00     0.111 C 
ENDROOT
BRANCH   1   2
HETATM    2  C   UNL     1     -21.999  -6.379  -4.463  1.00  0.00     0.010 C 
BRANCH   2   3
HETATM    3  C   UNL     1     -22.059  -6.471  -2.940  1.00  0.00     0.000 C 
BRANCH   3   4
HETATM    4  C   UNL     1     -20.906  -7.316  -2.415  1.00  0.00     0.000 C 
BRANCH   4   5
HETATM    5  C   UNL     1     -21.226  -7.889  -1.037  1.00  0.00     0.000 C 
BRANCH   5   6
HETATM    6  C   UNL     1     -22.443  -7.200  -0.428  1.00  0.00     0.004 C 
BRANCH   6   7
HETATM    7  C   UNL     1     -23.207  -8.157   0.480  1.00  0.00     0.027 C 
BRANCH   7   8
HETATM    8  C   UNL     1     -23.029  -9.570   0.044  1.00  0.00    -0.031 C 
HETATM    9  C   UNL     1     -24.036 -10.451   0.052  1.00  0.00    -0.031 C 
BRANCH   9  10
HETATM   10  C   UNL     1     -23.849 -11.865  -0.388  1.00  0.00     0.027 C 
BRANCH  10  11
HETATM   11  C   UNL     1     -22.762 -12.541   0.434  1.00  0.00     0.004 C 
BRANCH  11  12
HETATM   12  C   UNL     1     -21.615 -12.974  -0.466  1.00  0.00     0.000 C 
BRANCH  12  13
HETATM   13  C   UNL     1     -20.440 -12.024  -0.308  1.00  0.00     0.000 C 
BRANCH  13  14
HETATM   14  C   UNL     1     -20.207 -11.260  -1.603  1.00  0.00     0.000 C 
BRANCH  14  15
HETATM   15  C   UNL     1     -21.023 -11.876  -2.728  1.00  0.00    -0.000 C 
BRANCH  15  16
HETATM   16  C   UNL     1     -21.952 -10.836  -3.344  1.00  0.00    -0.005 C 
HETATM   17  C   UNL     1     -21.340 -10.265  -4.607  1.00  0.00     0.005 C 
ENDBRANCH  15  16
ENDBRANCH  14  15
ENDBRANCH  13  14
ENDBRANCH  12  13
ENDBRANCH  11  12
ENDBRANCH  10  11
ENDBRANCH   9  10
ENDBRANCH   7   8
ENDBRANCH   6   7
ENDBRANCH   5   6
ENDBRANCH   4   5
ENDBRANCH   3   4
ENDBRANCH   2   3
ENDBRANCH   1   2
BRANCH   1  18
HETATM   18  C   UNL     1     -20.537  -6.278  -6.488  1.00  0.00     0.258 C 
HETATM   19  O   UNL     1     -19.661  -6.659  -7.234  1.00  0.00    -0.265 OA
BRANCH  18  20
HETATM   20  O   UNL     1     -21.531  -5.396  -6.804  1.00  0.00    -0.319 OA
BRANCH  20  21
HETATM   21  C   UNL     1     -21.438  -4.896  -8.143  1.00  0.00     0.213 C 
BRANCH  21  22
HETATM   22  C   UNL     1     -22.508  -3.835  -8.390  1.00  0.00     0.174 C 
BRANCH  22  23
HETATM   23  C   UNL     1     -22.655  -3.506  -9.881  1.00  0.00     0.183 C 
HETATM   24  C   UNL     1     -23.890  -4.150 -10.523  1.00  0.00     0.180 C 
HETATM   25  C   UNL     1     -23.443  -4.493 -11.956  1.00  0.00     0.173 C 
HETATM   26  C   UNL     1     -22.001  -4.001 -12.022  1.00  0.00     0.202 C 
HETATM   27  O   UNL     1     -21.530  -3.932 -10.667  1.00  0.00    -0.378 OA
BRANCH  24  28
HETATM   28  O   UNL     1     -25.019  -3.309 -10.324  1.00  0.00    -0.390 OA
HETATM   29  H   UNL     1     -25.624  -3.418 -11.075  1.00  0.00     0.210 HD
ENDBRANCH  24  28
BRANCH  25  30
HETATM   30  O   UNL     1     -24.244  -4.022 -13.030  1.00  0.00    -0.391 OA
HETATM   31  H   UNL     1     -24.170  -4.616 -13.798  1.00  0.00     0.210 HD
ENDBRANCH  25  30
ENDBRANCH  22  23
BRANCH  22  32
HETATM   32  O   UNL     1     -23.762  -4.228  -7.823  1.00  0.00    -0.391 OA
HETATM   33  H   UNL     1     -24.029  -5.088  -8.187  1.00  0.00     0.210 HD
ENDBRANCH  22  32
ENDBRANCH  21  22
ENDBRANCH  20  21
ENDBRANCH  18  20
ENDBRANCH   1  18
TORSDOF 22
BEGIN_RES ARG D 557
REMARK  4 active torsions:
REMARK  status: ('A' for Active; 'I' for Inactive)
REMARK    1  A    between atoms: CA   and  CB  
REMARK    2  A    between atoms: CB   and  CG  
REMARK    3  A    between atoms: CG   and  CD  
REMARK    4  A    between atoms: CD   and  NE  
REMARK       I    between atoms: NE   and  CZ  
REMARK       I    between atoms: CZ   and  NH1 
REMARK       I    between atoms: CZ   and  NH2 
ROOT
ATOM      1  CA  ARG D 557     -26.217   2.705 -17.014  1.00 35.49     0.159 C 
ENDROOT
BRANCH   1   2
ATOM      2  CB  ARG D 557     -26.789   1.319 -17.183  1.00 35.49     0.034 C 
BRANCH   2   3
ATOM      3  CG  ARG D 557     -28.252   1.210 -17.236  1.00 35.49     0.027 C 
BRANCH   3   4
ATOM      4  CD  ARG D 557     -28.771   0.146 -16.347  1.00 35.49     0.116 C 
BRANCH   4   5
ATOM      5  NE  ARG D 557     -29.331  -0.954 -17.088  1.00 35.49    -0.212 N 
ATOM      6  CZ  ARG D 557     -28.864  -2.183 -17.108  1.00 35.49     0.666 C 
ATOM      7  NH1 ARG D 557     -27.786  -2.543 -16.437  1.00 35.49    -0.235 N 
ATOM      8  NH2 ARG D 557     -29.512  -3.059 -17.819  1.00 35.49    -0.235 N 
ATOM      9  HH  ARG D 557     -27.346  -1.984 -15.960  1.00 35.49     0.174 HD
ATOM     10  HH  ARG D 557     -27.530  -3.360 -16.485  1.00 35.49     0.174 HD
ATOM     11  HH  ARG D 557     -30.209  -2.800 -18.236  1.00 35.49     0.174 HD
ATOM     12  HH  ARG D 557     -29.244  -3.863 -17.854  1.00 35.49     0.174 HD
ATOM     13  HE  ARG D 557     -29.986  -0.795 -17.606  1.00 35.49     0.178 HD
ENDBRANCH   4   5
ENDBRANCH   3   4
ENDBRANCH   2   3
ENDBRANCH   1   2
END_RES ARG D 557
BEGIN_RES GLU D 570
REMARK  3 active torsions:
REMARK  status: ('A' for Active; 'I' for Inactive)
REMARK    5  A    between atoms: CA   and  CB  
REMARK    6  A    between atoms: CB   and  CG  
REMARK    7  A    between atoms: CG   and  CD  
ROOT
ATOM     14  CA  GLU D 570     -18.033  -6.348 -13.375  1.00 32.92     0.160 C 
ENDROOT
BRANCH  14  15
ATOM     15  CB  GLU D 570     -19.500  -6.345 -13.794  1.00 32.92     0.043 C 
BRANCH  15  16
ATOM     16  CG  GLU D 570     -19.819  -5.875 -15.167  1.00 32.92     0.100 C 
BRANCH  16  17
ATOM     17  CD  GLU D 570     -21.288  -5.580 -15.363  1.00 32.92     0.185 C 
ATOM     18  OE1 GLU D 570     -22.131  -6.309 -14.805  1.00 32.92    -0.647 OA
ATOM     19  OE2 GLU D 570     -21.599  -4.621 -16.096  1.00 32.92    -0.647 OA
ENDBRANCH  16  17
ENDBRANCH  15  16
ENDBRANCH  14  15
END_RES GLU D 570
ENDMDL
MODEL 8
REMARK VINA RESULT:      -7.2      7.846     13.020
REMARK  22 active torsions:
REMARK  status: ('A' for Active; 'I' for Inactive)
REMARK    1  A    between atoms: C_2  and  C_3 
REMARK    2  A    between atoms: C_3  and  C_4 
REMARK    3  A    between atoms: C_4  and  C_5 
REMARK    4  A    between atoms: C_5  and  C_6 
REMARK    5  A    between atoms: C_6  and  C_7 
REMARK    6  A    between atoms: C_7  and  C_8 
REMARK    7  A    between atoms: C_8  and  C_9 
REMARK    8  A    between atoms: C_10  and  C_11 
REMARK    9  A    between atoms: C_11  and  C_12 
REMARK   10  A    between atoms: C_12  and  C_13 
REMARK   11  A    between atoms: C_13  and  C_14 
REMARK   12  A    between atoms: C_14  and  C_15 
REMARK   13  A    between atoms: C_15  and  C_16 
REMARK   14  A    between atoms: C_16  and  C_17 
REMARK   15  A    between atoms: C_17  and  C_18 
REMARK   16  A    between atoms: C_18  and  O_20 
REMARK   17  A    between atoms: O_20  and  C_21 
REMARK   18  A    between atoms: C_21  and  C_22 
REMARK   19  A    between atoms: C_22  and  C_23 
REMARK   20  A    between atoms: C_22  and  O_30 
REMARK   21  A    between atoms: C_24  and  O_29 
REMARK   22  A    between atoms: C_25  and  O_28 
ROOT
HETATM    1  C   UNL     1     -33.389  -4.033 -16.577  1.00  0.00     0.111 C 
ENDROOT
BRANCH   1   2
HETATM    2  C   UNL     1     -34.051  -2.767 -17.103  1.00  0.00     0.010 C 
BRANCH   2   3
HETATM    3  C   UNL     1     -35.113  -2.223 -16.151  1.00  0.00     0.000 C 
BRANCH   3   4
HETATM    4  C   UNL     1     -35.909  -1.113 -16.824  1.00  0.00     0.000 C 
BRANCH   4   5
HETATM    5  C   UNL     1     -36.547  -0.188 -15.791  1.00  0.00     0.000 C 
BRANCH   5   6
HETATM    6  C   UNL     1     -35.639   0.997 -15.485  1.00  0.00     0.004 C 
BRANCH   6   7
HETATM    7  C   UNL     1     -35.036   0.869 -14.090  1.00  0.00     0.027 C 
BRANCH   7   8
HETATM    8  C   UNL     1     -35.850  -0.039 -13.234  1.00  0.00    -0.031 C 
HETATM    9  C   UNL     1     -35.880   0.075 -11.901  1.00  0.00    -0.031 C 
BRANCH   9  10
HETATM   10  C   UNL     1     -36.699  -0.838 -11.051  1.00  0.00     0.027 C 
BRANCH  10  11
HETATM   11  C   UNL     1     -35.873  -2.031 -10.598  1.00  0.00     0.004 C 
BRANCH  11  12
HETATM   12  C   UNL     1     -34.437  -1.890 -11.077  1.00  0.00     0.000 C 
BRANCH  12  13
HETATM   13  C   UNL     1     -33.592  -3.034 -10.543  1.00  0.00     0.000 C 
BRANCH  13  14
HETATM   14  C   UNL     1     -33.059  -3.874 -11.694  1.00  0.00     0.000 C 
BRANCH  14  15
HETATM   15  C   UNL     1     -33.199  -5.353 -11.372  1.00  0.00    -0.000 C 
BRANCH  15  16
HETATM   16  C   UNL     1     -34.348  -5.581 -10.398  1.00  0.00    -0.005 C 
HETATM   17  C   UNL     1     -34.631  -7.062 -10.252  1.00  0.00     0.005 C 
ENDBRANCH  15  16
ENDBRANCH  14  15
ENDBRANCH  13  14
ENDBRANCH  12  13
ENDBRANCH  11  12
ENDBRANCH  10  11
ENDBRANCH   9  10
ENDBRANCH   7   8
ENDBRANCH   6   7
ENDBRANCH   5   6
ENDBRANCH   4   5
ENDBRANCH   3   4
ENDBRANCH   2   3
ENDBRANCH   1   2
BRANCH   1  18
HETATM   18  C   UNL     1     -31.911  -4.051 -16.956  1.00  0.00     0.258 C 
HETATM   19  O   UNL     1     -31.380  -3.183 -17.614  1.00  0.00    -0.265 OA
BRANCH  18  20
HETATM   20  O   UNL     1     -31.325  -5.211 -16.536  1.00  0.00    -0.319 OA
BRANCH  20  21
HETATM   21  C   UNL     1     -31.393  -6.262 -17.508  1.00  0.00     0.213 C 
BRANCH  21  22
HETATM   22  C   UNL     1     -29.994  -6.784 -17.824  1.00  0.00     0.174 C 
BRANCH  22  23
HETATM   23  C   UNL     1     -28.984  -6.411 -16.732  1.00  0.00     0.183 C 
HETATM   24  C   UNL     1     -27.905  -5.434 -17.215  1.00  0.00     0.180 C 
HETATM   25  C   UNL     1     -26.635  -5.856 -16.451  1.00  0.00     0.173 C 
HETATM   26  C   UNL     1     -27.095  -7.021 -15.583  1.00  0.00     0.202 C 
HETATM   27  O   UNL     1     -28.283  -7.546 -16.199  1.00  0.00    -0.378 OA
BRANCH  24  28
HETATM   28  O   UNL     1     -28.385  -4.101 -17.092  1.00  0.00    -0.390 OA
HETATM   29  H   UNL     1     -28.715  -3.971 -16.189  1.00  0.00     0.210 HD
ENDBRANCH  24  28
BRANCH  25  30
HETATM   30  O   UNL     1     -25.938  -4.856 -15.722  1.00  0.00    -0.391 OA
HETATM   31  H   UNL     1     -25.880  -4.033 -16.239  1.00  0.00     0.210 HD
ENDBRANCH  25  30
ENDBRANCH  22  23
BRANCH  22  32
HETATM   32  O   UNL     1     -30.012  -8.198 -18.047  1.00  0.00    -0.391 OA
HETATM   33  H   UNL     1     -30.056  -8.662 -17.195  1.00  0.00     0.210 HD
ENDBRANCH  22  32
ENDBRANCH  21  22
ENDBRANCH  20  21
ENDBRANCH  18  20
ENDBRANCH   1  18
TORSDOF 22
BEGIN_RES ARG D 557
REMARK  4 active torsions:
REMARK  status: ('A' for Active; 'I' for Inactive)
REMARK    1  A    between atoms: CA   and  CB  
REMARK    2  A    between atoms: CB   and  CG  
REMARK    3  A    between atoms: CG   and  CD  
REMARK    4  A    between atoms: CD   and  NE  
REMARK       I    between atoms: NE   and  CZ  
REMARK       I    between atoms: CZ   and  NH1 
REMARK       I    between atoms: CZ   and  NH2 
ROOT
ATOM      1  CA  ARG D 557     -26.217   2.705 -17.014  1.00 35.49     0.159 C 
ENDROOT
BRANCH   1   2
ATOM      2  CB  ARG D 557     -26.789   1.319 -17.183  1.00 35.49     0.034 C 
BRANCH   2   3
ATOM      3  CG  ARG D 557     -26.029   0.214 -16.586  1.00 35.49     0.027 C 
BRANCH   3   4
ATOM      4  CD  ARG D 557     -26.906  -0.880 -16.108  1.00 35.49     0.116 C 
BRANCH   4   5
ATOM      5  NE  ARG D 557     -26.178  -1.871 -15.360  1.00 35.49    -0.212 N 
ATOM      6  CZ  ARG D 557     -25.063  -1.666 -14.696  1.00 35.49     0.666 C 
ATOM      7  NH1 ARG D 557     -24.467  -0.489 -14.657  1.00 35.49    -0.235 N 
ATOM      8  NH2 ARG D 557     -24.551  -2.677 -14.056  1.00 35.49    -0.235 N 
ATOM      9  HH  ARG D 557     -24.787   0.191 -15.069  1.00 35.49     0.174 HD
ATOM     10  HH  ARG D 557     -23.743  -0.414 -14.205  1.00 35.49     0.174 HD
ATOM     11  HH  ARG D 557     -24.962  -3.423 -14.093  1.00 35.49     0.174 HD
ATOM     12  HH  ARG D 557     -23.834  -2.582 -13.613  1.00 35.49     0.174 HD
ATOM     13  HE  ARG D 557     -26.452  -2.675 -15.391  1.00 35.49     0.178 HD
ENDBRANCH   4   5
ENDBRANCH   3   4
ENDBRANCH   2   3
ENDBRANCH   1   2
END_RES ARG D 557
BEGIN_RES GLU D 570
REMARK  3 active torsions:
REMARK  status: ('A' for Active; 'I' for Inactive)
REMARK    5  A    between atoms: CA   and  CB  
REMARK    6  A    between atoms: CB   and  CG  
REMARK    7  A    between atoms: CG   and  CD  
ROOT
ATOM     14  CA  GLU D 570     -18.033  -6.348 -13.375  1.00 32.92     0.160 C 
ENDROOT
BRANCH  14  15
ATOM     15  CB  GLU D 570     -19.500  -6.345 -13.794  1.00 32.92     0.043 C 
BRANCH  15  16
ATOM     16  CG  GLU D 570     -20.439  -5.517 -12.994  1.00 32.92     0.100 C 
BRANCH  16  17
ATOM     17  CD  GLU D 570     -21.690  -5.144 -13.754  1.00 32.92     0.185 C 
ATOM     18  OE1 GLU D 570     -22.773  -5.077 -13.141  1.00 32.92    -0.647 OA
ATOM     19  OE2 GLU D 570     -21.589  -4.932 -14.978  1.00 32.92    -0.647 OA
ENDBRANCH  16  17
ENDBRANCH  15  16
ENDBRANCH  14  15
END_RES GLU D 570
ENDMDL
MODEL 9
REMARK VINA RESULT:      -7.2      6.611     11.874
REMARK  22 active torsions:
REMARK  status: ('A' for Active; 'I' for Inactive)
REMARK    1  A    between atoms: C_2  and  C_3 
REMARK    2  A    between atoms: C_3  and  C_4 
REMARK    3  A    between atoms: C_4  and  C_5 
REMARK    4  A    between atoms: C_5  and  C_6 
REMARK    5  A    between atoms: C_6  and  C_7 
REMARK    6  A    between atoms: C_7  and  C_8 
REMARK    7  A    between atoms: C_8  and  C_9 
REMARK    8  A    between atoms: C_10  and  C_11 
REMARK    9  A    between atoms: C_11  and  C_12 
REMARK   10  A    between atoms: C_12  and  C_13 
REMARK   11  A    between atoms: C_13  and  C_14 
REMARK   12  A    between atoms: C_14  and  C_15 
REMARK   13  A    between atoms: C_15  and  C_16 
REMARK   14  A    between atoms: C_16  and  C_17 
REMARK   15  A    between atoms: C_17  and  C_18 
REMARK   16  A    between atoms: C_18  and  O_20 
REMARK   17  A    between atoms: O_20  and  C_21 
REMARK   18  A    between atoms: C_21  and  C_22 
REMARK   19  A    between atoms: C_22  and  C_23 
REMARK   20  A    between atoms: C_22  and  O_30 
REMARK   21  A    between atoms: C_24  and  O_29 
REMARK   22  A    between atoms: C_25  and  O_28 
ROOT
HETATM    1  C   UNL     1     -32.518  -5.039 -16.563  1.00  0.00     0.111 C 
ENDROOT
BRANCH   1   2
HETATM    2  C   UNL     1     -31.110  -5.436 -16.984  1.00  0.00     0.010 C 
BRANCH   2   3
HETATM    3  C   UNL     1     -31.035  -6.870 -17.499  1.00  0.00     0.000 C 
BRANCH   3   4
HETATM    4  C   UNL     1     -29.747  -7.086 -18.282  1.00  0.00     0.000 C 
BRANCH   4   5
HETATM    5  C   UNL     1     -28.890  -5.823 -18.294  1.00  0.00     0.000 C 
BRANCH   5   6
HETATM    6  C   UNL     1     -27.497  -6.104 -17.742  1.00  0.00     0.004 C 
BRANCH   6   7
HETATM    7  C   UNL     1     -27.578  -6.610 -16.306  1.00  0.00     0.027 C 
BRANCH   7   8
HETATM    8  C   UNL     1     -26.227  -6.941 -15.775  1.00  0.00    -0.031 C 
HETATM    9  C   UNL     1     -25.344  -5.996 -15.430  1.00  0.00    -0.031 C 
BRANCH   9  10
HETATM   10  C   UNL     1     -23.993  -6.337 -14.898  1.00  0.00     0.027 C 
BRANCH  10  11
HETATM   11  C   UNL     1     -23.246  -5.077 -14.488  1.00  0.00     0.004 C 
BRANCH  11  12
HETATM   12  C   UNL     1     -22.975  -5.090 -12.992  1.00  0.00     0.000 C 
BRANCH  12  13
HETATM   13  C   UNL     1     -22.092  -3.914 -12.611  1.00  0.00     0.000 C 
BRANCH  13  14
HETATM   14  C   UNL     1     -21.739  -3.981 -11.133  1.00  0.00     0.000 C 
BRANCH  14  15
HETATM   15  C   UNL     1     -22.866  -4.643 -10.355  1.00  0.00    -0.000 C 
BRANCH  15  16
HETATM   16  C   UNL     1     -23.407  -3.697  -9.291  1.00  0.00    -0.005 C 
HETATM   17  C   UNL     1     -24.843  -3.323  -9.598  1.00  0.00     0.005 C 
ENDBRANCH  15  16
ENDBRANCH  14  15
ENDBRANCH  13  14
ENDBRANCH  12  13
ENDBRANCH  11  12
ENDBRANCH  10  11
ENDBRANCH   9  10
ENDBRANCH   7   8
ENDBRANCH   6   7
ENDBRANCH   5   6
ENDBRANCH   4   5
ENDBRANCH   3   4
ENDBRANCH   2   3
ENDBRANCH   1   2
BRANCH   1  18
HETATM   18  C   UNL     1     -32.839  -3.632 -17.060  1.00  0.00     0.258 C 
HETATM   19  O   UNL     1     -32.102  -2.993 -17.778  1.00  0.00    -0.265 OA
BRANCH  18  20
HETATM   20  O   UNL     1     -34.003  -3.184 -16.503  1.00  0.00    -0.319 OA
BRANCH  20  21
HETATM   21  C   UNL     1     -34.679  -2.213 -17.311  1.00  0.00     0.213 C 
BRANCH  21  22
HETATM   22  C   UNL     1     -35.698  -1.444 -16.476  1.00  0.00     0.174 C 
BRANCH  22  23
HETATM   23  C   UNL     1     -35.040  -0.713 -15.299  1.00  0.00     0.183 C 
HETATM   24  C   UNL     1     -35.531  -1.205 -13.931  1.00  0.00     0.180 C 
HETATM   25  C   UNL     1     -35.534   0.058 -13.048  1.00  0.00     0.173 C 
HETATM   26  C   UNL     1     -35.027   1.158 -13.974  1.00  0.00     0.202 C 
HETATM   27  O   UNL     1     -35.265   0.706 -15.317  1.00  0.00    -0.378 OA
BRANCH  24  28
HETATM   28  O   UNL     1     -34.767  -2.336 -13.533  1.00  0.00    -0.390 OA
HETATM   29  H   UNL     1     -34.385  -2.748 -14.324  1.00  0.00     0.210 HD
ENDBRANCH  24  28
BRANCH  25  30
HETATM   30  O   UNL     1     -34.838   0.002 -11.812  1.00  0.00    -0.391 OA
HETATM   31  H   UNL     1     -35.150  -0.749 -11.277  1.00  0.00     0.210 HD
ENDBRANCH  25  30
ENDBRANCH  22  23
BRANCH  22  32
HETATM   32  O   UNL     1     -36.450  -0.536 -17.289  1.00  0.00    -0.391 OA
HETATM   33  H   UNL     1     -36.106   0.365 -17.175  1.00  0.00     0.210 HD
ENDBRANCH  22  32
ENDBRANCH  21  22
ENDBRANCH  20  21
ENDBRANCH  18  20
ENDBRANCH   1  18
TORSDOF 22
BEGIN_RES ARG D 557
REMARK  4 active torsions:
REMARK  status: ('A' for Active; 'I' for Inactive)
REMARK    1  A    between atoms: CA   and  CB  
REMARK    2  A    between atoms: CB   and  CG  
REMARK    3  A    between atoms: CG   and  CD  
REMARK    4  A    between atoms: CD   and  NE  
REMARK       I    between atoms: NE   and  CZ  
REMARK       I    between atoms: CZ   and  NH1 
REMARK       I    between atoms: CZ   and  NH2 
ROOT
ATOM      1  CA  ARG D 557     -26.217   2.705 -17.014  1.00 35.49     0.159 C 
ENDROOT
BRANCH   1   2
ATOM      2  CB  ARG D 557     -26.789   1.319 -17.183  1.00 35.49     0.034 C 
BRANCH   2   3
ATOM      3  CG  ARG D 557     -28.237   1.224 -17.402  1.00 35.49     0.027 C 
BRANCH   3   4
ATOM      4  CD  ARG D 557     -28.899   0.332 -16.423  1.00 35.49     0.116 C 
BRANCH   4   5
ATOM      5  NE  ARG D 557     -28.111  -0.838 -16.136  1.00 35.49    -0.212 N 
ATOM      6  CZ  ARG D 557     -28.308  -2.038 -16.635  1.00 35.49     0.666 C 
ATOM      7  NH1 ARG D 557     -29.295  -2.305 -17.470  1.00 35.49    -0.235 N 
ATOM      8  NH2 ARG D 557     -27.481  -2.978 -16.280  1.00 35.49    -0.235 N 
ATOM      9  HH  ARG D 557     -29.849  -1.701 -17.719  1.00 35.49     0.174 HD
ATOM     10  HH  ARG D 557     -29.372  -3.106 -17.765  1.00 35.49     0.174 HD
ATOM     11  HH  ARG D 557     -26.849  -2.774 -15.745  1.00 35.49     0.174 HD
ATOM     12  HH  ARG D 557     -27.574  -3.764 -16.584  1.00 35.49     0.174 HD
ATOM     13  HE  ARG D 557     -27.498  -0.772 -15.550  1.00 35.49     0.178 HD
ENDBRANCH   4   5
ENDBRANCH   3   4
ENDBRANCH   2   3
ENDBRANCH   1   2
END_RES ARG D 557
BEGIN_RES GLU D 570
REMARK  3 active torsions:
REMARK  status: ('A' for Active; 'I' for Inactive)
REMARK    5  A    between atoms: CA   and  CB  
REMARK    6  A    between atoms: CB   and  CG  
REMARK    7  A    between atoms: CG   and  CD  
ROOT
ATOM     14  CA  GLU D 570     -18.033  -6.348 -13.375  1.00 32.92     0.160 C 
ENDROOT
BRANCH  14  15
ATOM     15  CB  GLU D 570     -19.500  -6.345 -13.794  1.00 32.92     0.043 C 
BRANCH  15  16
ATOM     16  CG  GLU D 570     -20.082  -7.630 -14.260  1.00 32.92     0.100 C 
BRANCH  16  17
ATOM     17  CD  GLU D 570     -20.630  -7.554 -15.666  1.00 32.92     0.185 C 
ATOM     18  OE1 GLU D 570     -20.505  -6.493 -16.307  1.00 32.92    -0.647 OA
ATOM     19  OE2 GLU D 570     -21.206  -8.560 -16.124  1.00 32.92    -0.647 OA
ENDBRANCH  16  17
ENDBRANCH  15  16
ENDBRANCH  14  15
END_RES GLU D 570
ENDMDL
