MODEL 1
REMARK VINA RESULT:      -8.4      0.000      0.000
REMARK  22 active torsions:
REMARK  status: ('A' for Active; 'I' for Inactive)
REMARK    1  A    between atoms: C_5  and  C_33 
REMARK    2  A    between atoms: C_19  and  O_26 
REMARK    3  A    between atoms: C_20  and  O_25 
REMARK    4  A    between atoms: C_21  and  C_23 
REMARK    5  A    between atoms: C_23  and  O_24 
REMARK    6  A    between atoms: C_33  and  O_35 
REMARK    7  A    between atoms: O_35  and  C_36 
REMARK    8  A    between atoms: C_37  and  O_67 
REMARK    9  A    between atoms: C_38  and  O_66 
REMARK   10  A    between atoms: C_39  and  O_65 
REMARK   11  A    between atoms: C_40  and  C_42 
REMARK   12  A    between atoms: C_42  and  O_43 
REMARK   13  A    between atoms: O_43  and  C_44 
REMARK   14  A    between atoms: C_45  and  O_64 
REMARK   15  A    between atoms: C_46  and  O_63 
REMARK   16  A    between atoms: C_47  and  O_52 
REMARK   17  A    between atoms: C_48  and  C_50 
REMARK   18  A    between atoms: C_50  and  O_51 
REMARK   19  A    between atoms: O_52  and  C_53 
REMARK   20  A    between atoms: C_54  and  O_62 
REMARK   21  A    between atoms: C_55  and  O_61 
REMARK   22  A    between atoms: C_56  and  O_60 
ROOT
HETATM    1  C   UNL     1     -22.523 -11.927  -4.129  1.00  0.00     0.301 C 
HETATM    2  C   UNL     1     -22.331 -13.148  -5.044  1.00  0.00     0.205 C 
HETATM    3  C   UNL     1     -20.823 -13.378  -5.259  1.00  0.00     0.183 C 
HETATM    4  C   UNL     1     -20.095 -12.155  -5.869  1.00  0.00     0.180 C 
HETATM    5  C   UNL     1     -20.439 -10.875  -5.057  1.00  0.00     0.180 C 
HETATM    6  O   UNL     1     -21.863 -10.764  -4.756  1.00  0.00    -0.348 OA
ENDROOT
BRANCH   1   7
HETATM    7  O   UNL     1     -22.060 -12.229  -2.787  1.00  0.00    -0.286 OA
BRANCH   7   8
HETATM    8  C   UNL     1     -22.850 -12.817  -1.781  1.00  0.00     0.270 C 
HETATM    9  O   UNL     1     -23.832 -13.506  -1.995  1.00  0.00    -0.264 OA
BRANCH   8  10
HETATM   10  C   UNL     1     -22.174 -12.480  -0.369  1.00  0.00     0.056 C 
HETATM   11  C   UNL     1     -23.371 -11.885   0.395  1.00  0.00     0.021 C 
HETATM   12  C   UNL     1     -23.606 -10.470  -0.117  1.00  0.00     0.006 C 
HETATM   13  C   UNL     1     -22.524  -9.542   0.434  1.00  0.00    -0.014 C 
HETATM   14  C   UNL     1     -22.981  -8.091   0.212  1.00  0.00     0.010 C 
HETATM   15  C   UNL     1     -21.095  -9.960  -0.098  1.00  0.00    -0.005 C 
HETATM   16  C   UNL     1     -20.861 -11.541   0.069  1.00  0.00     0.037 C 
HETATM   17  C   UNL     1     -20.830  -9.360  -1.484  1.00  0.00     0.011 C 
HETATM   18  C   UNL     1     -19.382 -12.219   0.063  1.00  0.00    -0.069 C 
HETATM   19  C   UNL     1     -19.336 -13.685  -0.419  1.00  0.00    -0.013 C 
HETATM   20  C   UNL     1     -18.123 -11.734   0.388  1.00  0.00    -0.022 C 
HETATM   21  C   UNL     1     -20.636 -14.303  -0.883  1.00  0.00     0.016 C 
HETATM   22  C   UNL     1     -18.149 -13.641  -1.574  1.00  0.00    -0.028 C 
HETATM   23  C   UNL     1     -19.092 -14.527   0.946  1.00  0.00     0.021 C 
HETATM   24  C   UNL     1     -21.771 -13.880   0.081  1.00  0.00     0.022 C 
HETATM   25  C   UNL     1     -16.925 -13.917  -0.654  1.00  0.00     0.007 C 
HETATM   26  C   UNL     1     -18.077 -14.510  -2.857  1.00  0.00     0.011 C 
HETATM   27  C   UNL     1     -18.132 -12.188  -2.336  1.00  0.00     0.016 C 
HETATM   28  C   UNL     1     -16.692 -12.525   0.063  1.00  0.00     0.033 C 
HETATM   29  C   UNL     1     -16.111 -15.285  -0.993  1.00  0.00    -0.033 C 
HETATM   30  C   UNL     1     -15.516 -15.204  -2.405  1.00  0.00     0.007 C 
HETATM   31  C   UNL     1     -15.157 -15.745   0.166  1.00  0.00     0.044 C 
HETATM   32  C   UNL     1     -17.042 -16.593  -1.073  1.00  0.00     0.016 C 
HETATM   33  C   UNL     1     -16.601 -14.662  -3.398  1.00  0.00     0.007 C 
HETATM   34  C   UNL     1     -14.024 -14.675  -2.492  1.00  0.00     0.010 C 
HETATM   35  C   UNL     1     -13.318 -14.696  -1.096  1.00  0.00     0.157 C 
HETATM   36  C   UNL     1     -13.275 -15.585  -3.511  1.00  0.00     0.020 C 
HETATM   37  C   UNL     1     -13.693 -15.851  -0.187  1.00  0.00     0.148 C 
BRANCH  34  38
HETATM   38  C   UNL     1     -13.904 -13.211  -3.016  1.00  0.00     0.176 C 
BRANCH  38  39
HETATM   39  O   UNL     1     -13.326 -13.163  -4.303  1.00  0.00    -0.400 OA
HETATM   40  H   UNL     1     -14.018 -12.997  -4.969  1.00  0.00     0.209 HD
ENDBRANCH  38  39
ENDBRANCH  34  38
BRANCH  35  41
HETATM   41  O   UNL     1     -11.892 -14.665  -1.241  1.00  0.00    -0.392 OA
HETATM   42  H   UNL     1     -11.726 -14.445  -2.181  1.00  0.00     0.210 HD
ENDBRANCH  35  41
BRANCH  37  43
HETATM   43  O   UNL     1     -13.338 -17.102  -0.772  1.00  0.00    -0.393 OA
HETATM   44  H   UNL     1     -14.028 -17.759  -0.581  1.00  0.00     0.210 HD
ENDBRANCH  37  43
ENDBRANCH   8  10
ENDBRANCH   7   8
ENDBRANCH   1   7
BRANCH   2  45
HETATM   45  O   UNL     1     -22.980 -12.981  -6.312  1.00  0.00    -0.388 OA
HETATM   46  H   UNL     1     -22.725 -13.718  -6.897  1.00  0.00     0.210 HD
ENDBRANCH   2  45
BRANCH   3  47
HETATM   47  O   UNL     1     -20.583 -14.590  -5.984  1.00  0.00    -0.390 OA
HETATM   48  H   UNL     1     -21.408 -15.116  -5.978  1.00  0.00     0.210 HD
ENDBRANCH   3  47
BRANCH   5  49
HETATM   49  C   UNL     1     -19.864  -9.565  -5.764  1.00  0.00     0.205 C 
BRANCH  49  50
HETATM   50  O   UNL     1     -20.688  -8.410  -5.554  1.00  0.00    -0.356 OA
BRANCH  50  51
HETATM   51  C   UNL     1     -20.048  -7.124  -5.401  1.00  0.00     0.291 C 
HETATM   52  C   UNL     1     -21.143  -6.149  -4.970  1.00  0.00     0.204 C 
HETATM   53  C   UNL     1     -22.185  -6.136  -6.095  1.00  0.00     0.183 C 
HETATM   54  C   UNL     1     -21.635  -5.448  -7.366  1.00  0.00     0.187 C 
HETATM   55  C   UNL     1     -20.203  -6.069  -7.661  1.00  0.00     0.180 C 
HETATM   56  O   UNL     1     -19.405  -6.575  -6.553  1.00  0.00    -0.348 OA
BRANCH  52  57
HETATM   57  O   UNL     1     -20.663  -4.829  -4.681  1.00  0.00    -0.388 OA
HETATM   58  H   UNL     1     -21.358  -4.320  -4.217  1.00  0.00     0.210 HD
ENDBRANCH  52  57
BRANCH  53  59
HETATM   59  O   UNL     1     -23.422  -5.650  -5.588  1.00  0.00    -0.390 OA
HETATM   60  H   UNL     1     -23.549  -4.755  -5.963  1.00  0.00     0.210 HD
ENDBRANCH  53  59
BRANCH  54  61
HETATM   61  O   UNL     1     -21.654  -3.987  -7.337  1.00  0.00    -0.348 OA
BRANCH  61  62
HETATM   62  C   UNL     1     -22.432  -3.360  -8.392  1.00  0.00     0.292 C 
HETATM   63  C   UNL     1     -23.936  -3.762  -8.510  1.00  0.00     0.204 C 
HETATM   64  C   UNL     1     -24.089  -5.045  -9.365  1.00  0.00     0.183 C 
HETATM   65  C   UNL     1     -23.359  -4.923 -10.708  1.00  0.00     0.178 C 
HETATM   66  C   UNL     1     -21.900  -4.481 -10.496  1.00  0.00     0.152 C 
HETATM   67  O   UNL     1     -21.752  -3.342  -9.655  1.00  0.00    -0.351 OA
HETATM   68  C   UNL     1     -21.259  -4.102 -11.839  1.00  0.00     0.042 C 
BRANCH  63  69
HETATM   69  O   UNL     1     -24.716  -2.660  -9.038  1.00  0.00    -0.388 OA
HETATM   70  H   UNL     1     -25.417  -2.474  -8.385  1.00  0.00     0.210 HD
ENDBRANCH  63  69
BRANCH  64  71
HETATM   71  O   UNL     1     -25.456  -5.393  -9.633  1.00  0.00    -0.390 OA
HETATM   72  H   UNL     1     -25.771  -6.016  -8.953  1.00  0.00     0.210 HD
ENDBRANCH  64  71
BRANCH  65  73
HETATM   73  O   UNL     1     -24.033  -4.008 -11.584  1.00  0.00    -0.390 OA
HETATM   74  H   UNL     1     -24.840  -3.708 -11.121  1.00  0.00     0.210 HD
ENDBRANCH  65  73
ENDBRANCH  61  62
ENDBRANCH  54  61
BRANCH  55  75
HETATM   75  C   UNL     1     -19.270  -5.089  -8.409  1.00  0.00     0.198 C 
BRANCH  75  76
HETATM   76  O   UNL     1     -18.669  -4.187  -7.473  1.00  0.00    -0.398 OA
HETATM   77  H   UNL     1     -18.265  -4.774  -6.802  1.00  0.00     0.209 HD
ENDBRANCH  75  76
ENDBRANCH  55  75
ENDBRANCH  50  51
ENDBRANCH  49  50
ENDBRANCH   5  49
BRANCH   4  78
HETATM   78  O   UNL     1     -20.333 -12.005  -7.276  1.00  0.00    -0.390 OA
HETATM   79  H   UNL     1     -19.507 -11.672  -7.677  1.00  0.00     0.210 HD
ENDBRANCH   4  78
TORSDOF 22
BEGIN_RES ARG D 557
REMARK  4 active torsions:
REMARK  status: ('A' for Active; 'I' for Inactive)
REMARK    1  A    between atoms: CA   and  CB  
REMARK    2  A    between atoms: CB   and  CG  
REMARK    3  A    between atoms: CG   and  CD  
REMARK    4  A    between atoms: CD   and  NE  
REMARK       I    between atoms: NE   and  CZ  
REMARK       I    between atoms: CZ   and  NH1 
REMARK       I    between atoms: CZ   and  NH2 
ROOT
ATOM      1  CA  ARG D 557     -26.217   2.705 -17.014  1.00 35.49     0.159 C 
ENDROOT
BRANCH   1   2
ATOM      2  CB  ARG D 557     -26.789   1.319 -17.183  1.00 35.49     0.034 C 
BRANCH   2   3
ATOM      3  CG  ARG D 557     -25.838   0.202 -17.141  1.00 35.49     0.027 C 
BRANCH   3   4
ATOM      4  CD  ARG D 557     -24.728   0.441 -16.189  1.00 35.49     0.116 C 
BRANCH   4   5
ATOM      5  NE  ARG D 557     -24.816  -0.407 -15.030  1.00 35.49    -0.212 N 
ATOM      6  CZ  ARG D 557     -23.977  -1.368 -14.716  1.00 35.49     0.666 C 
ATOM      7  NH1 ARG D 557     -22.936  -1.675 -15.469  1.00 35.49    -0.235 N 
ATOM      8  NH2 ARG D 557     -24.199  -2.023 -13.614  1.00 35.49    -0.235 N 
ATOM      9  HH  ARG D 557     -22.770  -1.256 -16.198  1.00 35.49     0.174 HD
ATOM     10  HH  ARG D 557     -22.422  -2.310 -15.213  1.00 35.49     0.174 HD
ATOM     11  HH  ARG D 557     -24.874  -1.798 -13.144  1.00 35.49     0.174 HD
ATOM     12  HH  ARG D 557     -23.677  -2.648 -13.376  1.00 35.49     0.174 HD
ATOM     13  HE  ARG D 557     -25.497  -0.326 -14.527  1.00 35.49     0.178 HD
ENDBRANCH   4   5
ENDBRANCH   3   4
ENDBRANCH   2   3
ENDBRANCH   1   2
END_RES ARG D 557
BEGIN_RES GLU D 570
REMARK  3 active torsions:
REMARK  status: ('A' for Active; 'I' for Inactive)
REMARK    5  A    between atoms: CA   and  CB  
REMARK    6  A    between atoms: CB   and  CG  
REMARK    7  A    between atoms: CG   and  CD  
ROOT
ATOM     14  CA  GLU D 570     -18.033  -6.348 -13.375  1.00 32.92     0.160 C 
ENDROOT
BRANCH  14  15
ATOM     15  CB  GLU D 570     -19.500  -6.345 -13.794  1.00 32.92     0.043 C 
BRANCH  15  16
ATOM     16  CG  GLU D 570     -19.814  -5.930 -15.186  1.00 32.92     0.100 C 
BRANCH  16  17
ATOM     17  CD  GLU D 570     -21.280  -5.636 -15.397  1.00 32.92     0.185 C 
ATOM     18  OE1 GLU D 570     -21.620  -4.503 -15.789  1.00 32.92    -0.647 OA
ATOM     19  OE2 GLU D 570     -22.100  -6.543 -15.151  1.00 32.92    -0.647 OA
ENDBRANCH  16  17
ENDBRANCH  15  16
ENDBRANCH  14  15
END_RES GLU D 570
ENDMDL
MODEL 2
REMARK VINA RESULT:      -7.4      1.655      2.403
REMARK  22 active torsions:
REMARK  status: ('A' for Active; 'I' for Inactive)
REMARK    1  A    between atoms: C_5  and  C_33 
REMARK    2  A    between atoms: C_19  and  O_26 
REMARK    3  A    between atoms: C_20  and  O_25 
REMARK    4  A    between atoms: C_21  and  C_23 
REMARK    5  A    between atoms: C_23  and  O_24 
REMARK    6  A    between atoms: C_33  and  O_35 
REMARK    7  A    between atoms: O_35  and  C_36 
REMARK    8  A    between atoms: C_37  and  O_67 
REMARK    9  A    between atoms: C_38  and  O_66 
REMARK   10  A    between atoms: C_39  and  O_65 
REMARK   11  A    between atoms: C_40  and  C_42 
REMARK   12  A    between atoms: C_42  and  O_43 
REMARK   13  A    between atoms: O_43  and  C_44 
REMARK   14  A    between atoms: C_45  and  O_64 
REMARK   15  A    between atoms: C_46  and  O_63 
REMARK   16  A    between atoms: C_47  and  O_52 
REMARK   17  A    between atoms: C_48  and  C_50 
REMARK   18  A    between atoms: C_50  and  O_51 
REMARK   19  A    between atoms: O_52  and  C_53 
REMARK   20  A    between atoms: C_54  and  O_62 
REMARK   21  A    between atoms: C_55  and  O_61 
REMARK   22  A    between atoms: C_56  and  O_60 
ROOT
HETATM    1  C   UNL     1     -21.956 -10.108  -4.317  1.00  0.00     0.301 C 
HETATM    2  C   UNL     1     -20.829 -10.723  -5.163  1.00  0.00     0.205 C 
HETATM    3  C   UNL     1     -19.488 -10.093  -4.741  1.00  0.00     0.183 C 
HETATM    4  C   UNL     1     -19.461  -8.551  -4.884  1.00  0.00     0.180 C 
HETATM    5  C   UNL     1     -20.706  -7.933  -4.189  1.00  0.00     0.180 C 
HETATM    6  O   UNL     1     -21.940  -8.644  -4.509  1.00  0.00    -0.348 OA
ENDROOT
BRANCH   1   7
HETATM    7  O   UNL     1     -21.835 -10.534  -2.935  1.00  0.00    -0.286 OA
BRANCH   7   8
HETATM    8  C   UNL     1     -22.598 -11.559  -2.342  1.00  0.00     0.270 C 
HETATM    9  O   UNL     1     -23.429 -12.225  -2.935  1.00  0.00    -0.264 OA
BRANCH   8  10
HETATM   10  C   UNL     1     -22.108 -11.718  -0.826  1.00  0.00     0.056 C 
HETATM   11  C   UNL     1     -23.343 -11.204  -0.064  1.00  0.00     0.021 C 
HETATM   12  C   UNL     1     -23.365  -9.685  -0.164  1.00  0.00     0.006 C 
HETATM   13  C   UNL     1     -22.293  -9.097   0.754  1.00  0.00    -0.014 C 
HETATM   14  C   UNL     1     -22.573  -7.594   0.913  1.00  0.00     0.010 C 
HETATM   15  C   UNL     1     -20.847  -9.538   0.290  1.00  0.00    -0.005 C 
HETATM   16  C   UNL     1     -20.792 -11.121   0.014  1.00  0.00     0.037 C 
HETATM   17  C   UNL     1     -20.325  -8.619  -0.822  1.00  0.00     0.011 C 
HETATM   18  C   UNL     1     -19.399 -11.961  -0.021  1.00  0.00    -0.069 C 
HETATM   19  C   UNL     1     -19.421 -13.229  -0.901  1.00  0.00    -0.013 C 
HETATM   20  C   UNL     1     -18.161 -11.756   0.573  1.00  0.00    -0.022 C 
HETATM   21  C   UNL     1     -20.691 -13.516  -1.670  1.00  0.00     0.016 C 
HETATM   22  C   UNL     1     -18.078 -13.026  -1.850  1.00  0.00    -0.028 C 
HETATM   23  C   UNL     1     -19.463 -14.440   0.178  1.00  0.00     0.021 C 
HETATM   24  C   UNL     1     -21.911 -13.229  -0.762  1.00  0.00     0.022 C 
HETATM   25  C   UNL     1     -17.035 -13.706  -0.917  1.00  0.00     0.007 C 
HETATM   26  C   UNL     1     -17.900 -13.508  -3.313  1.00  0.00     0.011 C 
HETATM   27  C   UNL     1     -17.811 -11.435  -2.147  1.00  0.00     0.016 C 
HETATM   28  C   UNL     1     -16.779 -12.610   0.197  1.00  0.00     0.033 C 
HETATM   29  C   UNL     1     -16.313 -15.023  -1.544  1.00  0.00    -0.033 C 
HETATM   30  C   UNL     1     -15.511 -14.634  -2.793  1.00  0.00     0.007 C 
HETATM   31  C   UNL     1     -15.588 -15.907  -0.469  1.00  0.00     0.044 C 
HETATM   32  C   UNL     1     -17.342 -16.122  -2.108  1.00  0.00     0.016 C 
HETATM   33  C   UNL     1     -16.382 -13.699  -3.703  1.00  0.00     0.007 C 
HETATM   34  C   UNL     1     -13.980 -14.306  -2.551  1.00  0.00     0.010 C 
HETATM   35  C   UNL     1     -13.492 -14.806  -1.151  1.00  0.00     0.157 C 
HETATM   36  C   UNL     1     -13.178 -14.989  -3.698  1.00  0.00     0.020 C 
HETATM   37  C   UNL     1     -14.105 -16.106  -0.668  1.00  0.00     0.148 C 
BRANCH  34  38
HETATM   38  C   UNL     1     -13.645 -12.783  -2.608  1.00  0.00     0.176 C 
BRANCH  38  39
HETATM   39  O   UNL     1     -13.251 -12.383  -3.903  1.00  0.00    -0.400 OA
HETATM   40  H   UNL     1     -12.445 -12.863  -4.165  1.00  0.00     0.209 HD
ENDBRANCH  38  39
ENDBRANCH  34  38
BRANCH  35  41
HETATM   41  O   UNL     1     -12.064 -14.925  -1.117  1.00  0.00    -0.392 OA
HETATM   42  H   UNL     1     -11.732 -14.053  -0.820  1.00  0.00     0.210 HD
ENDBRANCH  35  41
BRANCH  37  43
HETATM   43  O   UNL     1     -13.788 -17.182  -1.548  1.00  0.00    -0.393 OA
HETATM   44  H   UNL     1     -13.011 -16.949  -2.081  1.00  0.00     0.210 HD
ENDBRANCH  37  43
ENDBRANCH   8  10
ENDBRANCH   7   8
ENDBRANCH   1   7
BRANCH   2  45
HETATM   45  O   UNL     1     -21.036 -10.522  -6.568  1.00  0.00    -0.388 OA
HETATM   46  H   UNL     1     -20.862 -11.359  -7.036  1.00  0.00     0.210 HD
ENDBRANCH   2  45
BRANCH   3  47
HETATM   47  O   UNL     1     -18.387 -10.735  -5.394  1.00  0.00    -0.390 OA
HETATM   48  H   UNL     1     -18.043 -11.430  -4.797  1.00  0.00     0.210 HD
ENDBRANCH   3  47
BRANCH   5  49
HETATM   49  C   UNL     1     -20.816  -6.367  -4.477  1.00  0.00     0.205 C 
BRANCH  49  50
HETATM   50  O   UNL     1     -21.011  -6.067  -5.865  1.00  0.00    -0.356 OA
BRANCH  50  51
HETATM   51  C   UNL     1     -20.503  -4.816  -6.379  1.00  0.00     0.291 C 
HETATM   52  C   UNL     1     -21.724  -3.944  -6.669  1.00  0.00     0.204 C 
HETATM   53  C   UNL     1     -22.558  -4.692  -7.715  1.00  0.00     0.183 C 
HETATM   54  C   UNL     1     -21.853  -4.710  -9.091  1.00  0.00     0.187 C 
HETATM   55  C   UNL     1     -20.350  -5.163  -8.850  1.00  0.00     0.180 C 
HETATM   56  O   UNL     1     -19.717  -4.872  -7.571  1.00  0.00    -0.348 OA
BRANCH  52  57
HETATM   57  O   UNL     1     -21.398  -2.617  -7.104  1.00  0.00    -0.388 OA
HETATM   58  H   UNL     1     -21.920  -2.394  -7.901  1.00  0.00     0.210 HD
ENDBRANCH  52  57
BRANCH  53  59
HETATM   59  O   UNL     1     -23.896  -4.208  -7.688  1.00  0.00    -0.390 OA
HETATM   60  H   UNL     1     -24.480  -4.994  -7.658  1.00  0.00     0.210 HD
ENDBRANCH  53  59
BRANCH  54  61
HETATM   61  O   UNL     1     -21.984  -3.481  -9.871  1.00  0.00    -0.348 OA
BRANCH  61  62
HETATM   62  C   UNL     1     -23.206  -3.374 -10.651  1.00  0.00     0.292 C 
HETATM   63  C   UNL     1     -23.830  -4.698 -11.193  1.00  0.00     0.204 C 
HETATM   64  C   UNL     1     -23.179  -5.091 -12.543  1.00  0.00     0.183 C 
HETATM   65  C   UNL     1     -23.197  -3.928 -13.542  1.00  0.00     0.178 C 
HETATM   66  C   UNL     1     -22.604  -2.657 -12.907  1.00  0.00     0.152 C 
HETATM   67  O   UNL     1     -23.152  -2.331 -11.635  1.00  0.00    -0.351 OA
HETATM   68  C   UNL     1     -22.869  -1.440 -13.806  1.00  0.00     0.042 C 
BRANCH  63  69
HETATM   69  O   UNL     1     -25.270  -4.574 -11.299  1.00  0.00    -0.388 OA
HETATM   70  H   UNL     1     -25.465  -4.355 -12.230  1.00  0.00     0.210 HD
ENDBRANCH  63  69
BRANCH  64  71
HETATM   71  O   UNL     1     -23.803  -6.222 -13.170  1.00  0.00    -0.390 OA
HETATM   72  H   UNL     1     -24.314  -6.719 -12.505  1.00  0.00     0.210 HD
ENDBRANCH  64  71
BRANCH  65  73
HETATM   73  O   UNL     1     -24.526  -3.672 -14.019  1.00  0.00    -0.390 OA
HETATM   74  H   UNL     1     -25.113  -4.333 -13.602  1.00  0.00     0.210 HD
ENDBRANCH  65  73
ENDBRANCH  61  62
ENDBRANCH  54  61
BRANCH  55  75
HETATM   75  C   UNL     1     -19.378  -4.602  -9.913  1.00  0.00     0.198 C 
BRANCH  75  76
HETATM   76  O   UNL     1     -19.978  -4.694 -11.210  1.00  0.00    -0.398 OA
HETATM   77  H   UNL     1     -20.940  -4.676 -11.030  1.00  0.00     0.209 HD
ENDBRANCH  75  76
ENDBRANCH  55  75
ENDBRANCH  50  51
ENDBRANCH  49  50
ENDBRANCH   5  49
BRANCH   4  78
HETATM   78  O   UNL     1     -19.304  -8.116  -6.241  1.00  0.00    -0.390 OA
HETATM   79  H   UNL     1     -19.401  -7.145  -6.250  1.00  0.00     0.210 HD
ENDBRANCH   4  78
TORSDOF 22
BEGIN_RES ARG D 557
REMARK  4 active torsions:
REMARK  status: ('A' for Active; 'I' for Inactive)
REMARK    1  A    between atoms: CA   and  CB  
REMARK    2  A    between atoms: CB   and  CG  
REMARK    3  A    between atoms: CG   and  CD  
REMARK    4  A    between atoms: CD   and  NE  
REMARK       I    between atoms: NE   and  CZ  
REMARK       I    between atoms: CZ   and  NH1 
REMARK       I    between atoms: CZ   and  NH2 
ROOT
ATOM      1  CA  ARG D 557     -26.217   2.705 -17.014  1.00 35.49     0.159 C 
ENDROOT
BRANCH   1   2
ATOM      2  CB  ARG D 557     -26.789   1.319 -17.183  1.00 35.49     0.034 C 
BRANCH   2   3
ATOM      3  CG  ARG D 557     -25.950   0.199 -16.738  1.00 35.49     0.027 C 
BRANCH   3   4
ATOM      4  CD  ARG D 557     -26.737  -0.868 -16.078  1.00 35.49     0.116 C 
BRANCH   4   5
ATOM      5  NE  ARG D 557     -27.982  -1.121 -16.754  1.00 35.49    -0.212 N 
ATOM      6  CZ  ARG D 557     -28.508  -2.304 -16.977  1.00 35.49     0.666 C 
ATOM      7  NH1 ARG D 557     -27.919  -3.424 -16.601  1.00 35.49    -0.235 N 
ATOM      8  NH2 ARG D 557     -29.657  -2.345 -17.587  1.00 35.49    -0.235 N 
ATOM      9  HH  ARG D 557     -27.164  -3.421 -16.196  1.00 35.49     0.174 HD
ATOM     10  HH  ARG D 557     -28.311  -4.167 -16.770  1.00 35.49     0.174 HD
ATOM     11  HH  ARG D 557     -30.017  -1.606 -17.812  1.00 35.49     0.174 HD
ATOM     12  HH  ARG D 557     -30.030  -3.090 -17.745  1.00 35.49     0.174 HD
ATOM     13  HE  ARG D 557     -28.393  -0.459 -17.095  1.00 35.49     0.178 HD
ENDBRANCH   4   5
ENDBRANCH   3   4
ENDBRANCH   2   3
ENDBRANCH   1   2
END_RES ARG D 557
BEGIN_RES GLU D 570
REMARK  3 active torsions:
REMARK  status: ('A' for Active; 'I' for Inactive)
REMARK    5  A    between atoms: CA   and  CB  
REMARK    6  A    between atoms: CB   and  CG  
REMARK    7  A    between atoms: CG   and  CD  
ROOT
ATOM     14  CA  GLU D 570     -18.033  -6.348 -13.375  1.00 32.92     0.160 C 
ENDROOT
BRANCH  14  15
ATOM     15  CB  GLU D 570     -19.500  -6.345 -13.794  1.00 32.92     0.043 C 
BRANCH  15  16
ATOM     16  CG  GLU D 570     -19.864  -5.567 -15.006  1.00 32.92     0.100 C 
BRANCH  16  17
ATOM     17  CD  GLU D 570     -21.143  -6.047 -15.653  1.00 32.92     0.185 C 
ATOM     18  OE1 GLU D 570     -21.707  -7.061 -15.198  1.00 32.92    -0.647 OA
ATOM     19  OE2 GLU D 570     -21.576  -5.412 -16.635  1.00 32.92    -0.647 OA
ENDBRANCH  16  17
ENDBRANCH  15  16
ENDBRANCH  14  15
END_RES GLU D 570
ENDMDL
MODEL 3
REMARK VINA RESULT:      -7.3      2.320      5.090
REMARK  22 active torsions:
REMARK  status: ('A' for Active; 'I' for Inactive)
REMARK    1  A    between atoms: C_5  and  C_33 
REMARK    2  A    between atoms: C_19  and  O_26 
REMARK    3  A    between atoms: C_20  and  O_25 
REMARK    4  A    between atoms: C_21  and  C_23 
REMARK    5  A    between atoms: C_23  and  O_24 
REMARK    6  A    between atoms: C_33  and  O_35 
REMARK    7  A    between atoms: O_35  and  C_36 
REMARK    8  A    between atoms: C_37  and  O_67 
REMARK    9  A    between atoms: C_38  and  O_66 
REMARK   10  A    between atoms: C_39  and  O_65 
REMARK   11  A    between atoms: C_40  and  C_42 
REMARK   12  A    between atoms: C_42  and  O_43 
REMARK   13  A    between atoms: O_43  and  C_44 
REMARK   14  A    between atoms: C_45  and  O_64 
REMARK   15  A    between atoms: C_46  and  O_63 
REMARK   16  A    between atoms: C_47  and  O_52 
REMARK   17  A    between atoms: C_48  and  C_50 
REMARK   18  A    between atoms: C_50  and  O_51 
REMARK   19  A    between atoms: O_52  and  C_53 
REMARK   20  A    between atoms: C_54  and  O_62 
REMARK   21  A    between atoms: C_55  and  O_61 
REMARK   22  A    between atoms: C_56  and  O_60 
ROOT
HETATM    1  C   UNL     1     -20.513  -8.881  -4.488  1.00  0.00     0.301 C 
HETATM    2  C   UNL     1     -20.881  -7.992  -3.289  1.00  0.00     0.205 C 
HETATM    3  C   UNL     1     -22.019  -7.040  -3.704  1.00  0.00     0.183 C 
HETATM    4  C   UNL     1     -21.662  -6.148  -4.919  1.00  0.00     0.180 C 
HETATM    5  C   UNL     1     -21.107  -7.026  -6.075  1.00  0.00     0.180 C 
HETATM    6  O   UNL     1     -20.130  -8.009  -5.617  1.00  0.00    -0.348 OA
ENDROOT
BRANCH   1   7
HETATM    7  O   UNL     1     -21.597  -9.801  -4.782  1.00  0.00    -0.286 OA
BRANCH   7   8
HETATM    8  C   UNL     1     -21.844 -10.997  -4.080  1.00  0.00     0.270 C 
HETATM    9  O   UNL     1     -22.568 -11.081  -3.102  1.00  0.00    -0.264 OA
BRANCH   8  10
HETATM   10  C   UNL     1     -21.085 -12.180  -4.847  1.00  0.00     0.056 C 
HETATM   11  C   UNL     1     -21.818 -12.169  -6.200  1.00  0.00     0.021 C 
HETATM   12  C   UNL     1     -23.179 -12.825  -6.009  1.00  0.00     0.006 C 
HETATM   13  C   UNL     1     -23.003 -14.337  -5.878  1.00  0.00    -0.014 C 
HETATM   14  C   UNL     1     -24.381 -14.995  -6.053  1.00  0.00     0.010 C 
HETATM   15  C   UNL     1     -22.166 -14.700  -4.587  1.00  0.00    -0.005 C 
HETATM   16  C   UNL     1     -20.841 -13.795  -4.491  1.00  0.00     0.037 C 
HETATM   17  C   UNL     1     -23.066 -14.751  -3.347  1.00  0.00     0.011 C 
HETATM   18  C   UNL     1     -19.557 -14.207  -3.580  1.00  0.00    -0.069 C 
HETATM   19  C   UNL     1     -18.706 -13.022  -3.074  1.00  0.00    -0.013 C 
HETATM   20  C   UNL     1     -19.071 -15.429  -3.136  1.00  0.00    -0.022 C 
HETATM   21  C   UNL     1     -19.183 -11.629  -3.422  1.00  0.00     0.016 C 
HETATM   22  C   UNL     1     -18.606 -13.325  -1.449  1.00  0.00    -0.028 C 
HETATM   23  C   UNL     1     -17.366 -13.099  -3.986  1.00  0.00     0.021 C 
HETATM   24  C   UNL     1     -19.671 -11.611  -4.891  1.00  0.00     0.022 C 
HETATM   25  C   UNL     1     -17.334 -14.219  -1.461  1.00  0.00     0.007 C 
HETATM   26  C   UNL     1     -18.523 -12.268  -0.317  1.00  0.00     0.011 C 
HETATM   27  C   UNL     1     -19.969 -14.063  -0.910  1.00  0.00     0.016 C 
HETATM   28  C   UNL     1     -17.875 -15.610  -1.989  1.00  0.00     0.033 C 
HETATM   29  C   UNL     1     -16.070 -13.619  -0.628  1.00  0.00    -0.033 C 
HETATM   30  C   UNL     1     -16.434 -13.495   0.857  1.00  0.00     0.007 C 
HETATM   31  C   UNL     1     -14.707 -14.313  -0.980  1.00  0.00     0.044 C 
HETATM   32  C   UNL     1     -15.684 -12.111  -1.029  1.00  0.00     0.016 C 
HETATM   33  C   UNL     1     -17.853 -12.842   0.993  1.00  0.00     0.007 C 
HETATM   34  C   UNL     1     -16.036 -14.729   1.767  1.00  0.00     0.010 C 
HETATM   35  C   UNL     1     -15.012 -15.673   1.052  1.00  0.00     0.157 C 
HETATM   36  C   UNL     1     -15.436 -14.152   3.085  1.00  0.00     0.020 C 
HETATM   37  C   UNL     1     -13.992 -14.984   0.167  1.00  0.00     0.148 C 
BRANCH  34  38
HETATM   38  C   UNL     1     -17.244 -15.628   2.174  1.00  0.00     0.176 C 
BRANCH  38  39
HETATM   39  O   UNL     1     -17.314 -16.796   1.384  1.00  0.00    -0.400 OA
HETATM   40  H   UNL     1     -16.515 -17.336   1.522  1.00  0.00     0.209 HD
ENDBRANCH  38  39
ENDBRANCH  34  38
BRANCH  35  41
HETATM   41  O   UNL     1     -14.323 -16.496   2.001  1.00  0.00    -0.392 OA
HETATM   42  H   UNL     1     -14.695 -16.261   2.876  1.00  0.00     0.210 HD
ENDBRANCH  35  41
BRANCH  37  43
HETATM   43  O   UNL     1     -13.171 -14.096   0.923  1.00  0.00    -0.393 OA
HETATM   44  H   UNL     1     -13.728 -13.433   1.363  1.00  0.00     0.210 HD
ENDBRANCH  37  43
ENDBRANCH   8  10
ENDBRANCH   7   8
ENDBRANCH   1   7
BRANCH   2  45
HETATM   45  O   UNL     1     -19.761  -7.230  -2.817  1.00  0.00    -0.388 OA
HETATM   46  H   UNL     1     -18.950  -7.760  -2.928  1.00  0.00     0.210 HD
ENDBRANCH   2  45
BRANCH   3  47
HETATM   47  O   UNL     1     -22.501  -6.291  -2.583  1.00  0.00    -0.390 OA
HETATM   48  H   UNL     1     -21.938  -6.503  -1.811  1.00  0.00     0.210 HD
ENDBRANCH   3  47
BRANCH   5  49
HETATM   49  C   UNL     1     -20.550  -6.129  -7.272  1.00  0.00     0.205 C 
BRANCH  49  50
HETATM   50  O   UNL     1     -21.579  -5.694  -8.170  1.00  0.00    -0.356 OA
BRANCH  50  51
HETATM   51  C   UNL     1     -21.634  -4.297  -8.534  1.00  0.00     0.291 C 
HETATM   52  C   UNL     1     -23.111  -3.963  -8.730  1.00  0.00     0.204 C 
HETATM   53  C   UNL     1     -23.618  -4.865  -9.861  1.00  0.00     0.183 C 
HETATM   54  C   UNL     1     -23.019  -4.450 -11.225  1.00  0.00     0.187 C 
HETATM   55  C   UNL     1     -21.452  -4.286 -11.026  1.00  0.00     0.180 C 
HETATM   56  O   UNL     1     -20.937  -3.905  -9.718  1.00  0.00    -0.348 OA
BRANCH  52  57
HETATM   57  O   UNL     1     -23.360  -2.578  -9.008  1.00  0.00    -0.388 OA
HETATM   58  H   UNL     1     -22.994  -2.347  -9.886  1.00  0.00     0.210 HD
ENDBRANCH  52  57
BRANCH  53  59
HETATM   59  O   UNL     1     -25.035  -4.965  -9.789  1.00  0.00    -0.390 OA
HETATM   60  H   UNL     1     -25.334  -4.289  -9.146  1.00  0.00     0.210 HD
ENDBRANCH  53  59
BRANCH  54  61
HETATM   61  O   UNL     1     -23.660  -3.301 -11.860  1.00  0.00    -0.348 OA
BRANCH  61  62
HETATM   62  C   UNL     1     -23.726  -3.356 -13.311  1.00  0.00     0.292 C 
HETATM   63  C   UNL     1     -23.451  -2.032 -14.092  1.00  0.00     0.204 C 
HETATM   64  C   UNL     1     -24.750  -1.195 -14.213  1.00  0.00     0.183 C 
HETATM   65  C   UNL     1     -25.912  -2.027 -14.767  1.00  0.00     0.178 C 
HETATM   66  C   UNL     1     -26.079  -3.330 -13.965  1.00  0.00     0.152 C 
HETATM   67  O   UNL     1     -24.874  -4.067 -13.794  1.00  0.00    -0.351 OA
HETATM   68  C   UNL     1     -27.055  -4.274 -14.682  1.00  0.00     0.042 C 
BRANCH  63  69
HETATM   69  O   UNL     1     -22.866  -2.318 -15.387  1.00  0.00    -0.388 OA
HETATM   70  H   UNL     1     -22.202  -3.020 -15.246  1.00  0.00     0.210 HD
ENDBRANCH  63  69
BRANCH  64  71
HETATM   71  O   UNL     1     -24.604  -0.031 -15.042  1.00  0.00    -0.390 OA
HETATM   72  H   UNL     1     -24.683  -0.289 -15.978  1.00  0.00     0.210 HD
ENDBRANCH  64  71
BRANCH  65  73
HETATM   73  O   UNL     1     -25.724  -2.321 -16.159  1.00  0.00    -0.390 OA
HETATM   74  H   UNL     1     -26.192  -3.160 -16.341  1.00  0.00     0.210 HD
ENDBRANCH  65  73
ENDBRANCH  61  62
ENDBRANCH  54  61
BRANCH  55  75
HETATM   75  C   UNL     1     -20.827  -3.270 -12.011  1.00  0.00     0.198 C 
BRANCH  75  76
HETATM   76  O   UNL     1     -20.095  -2.279 -11.281  1.00  0.00    -0.398 OA
HETATM   77  H   UNL     1     -19.162  -2.444 -11.526  1.00  0.00     0.209 HD
ENDBRANCH  75  76
ENDBRANCH  55  75
ENDBRANCH  50  51
ENDBRANCH  49  50
ENDBRANCH   5  49
BRANCH   4  78
HETATM   78  O   UNL     1     -20.794  -5.058  -4.579  1.00  0.00    -0.390 OA
HETATM   79  H   UNL     1     -20.353  -5.288  -3.739  1.00  0.00     0.210 HD
ENDBRANCH   4  78
TORSDOF 22
BEGIN_RES ARG D 557
REMARK  4 active torsions:
REMARK  status: ('A' for Active; 'I' for Inactive)
REMARK    1  A    between atoms: CA   and  CB  
REMARK    2  A    between atoms: CB   and  CG  
REMARK    3  A    between atoms: CG   and  CD  
REMARK    4  A    between atoms: CD   and  NE  
REMARK       I    between atoms: NE   and  CZ  
REMARK       I    between atoms: CZ   and  NH1 
REMARK       I    between atoms: CZ   and  NH2 
ROOT
ATOM      1  CA  ARG D 557     -26.217   2.705 -17.014  1.00 35.49     0.159 C 
ENDROOT
BRANCH   1   2
ATOM      2  CB  ARG D 557     -26.789   1.319 -17.183  1.00 35.49     0.034 C 
BRANCH   2   3
ATOM      3  CG  ARG D 557     -28.224   1.228 -17.479  1.00 35.49     0.027 C 
BRANCH   3   4
ATOM      4  CD  ARG D 557     -28.902   0.188 -16.671  1.00 35.49     0.116 C 
BRANCH   4   5
ATOM      5  NE  ARG D 557     -28.351  -1.121 -16.900  1.00 35.49    -0.212 N 
ATOM      6  CZ  ARG D 557     -29.035  -2.198 -17.216  1.00 35.49     0.666 C 
ATOM      7  NH1 ARG D 557     -30.348  -2.190 -17.348  1.00 35.49    -0.235 N 
ATOM      8  NH2 ARG D 557     -28.367  -3.298 -17.408  1.00 35.49    -0.235 N 
ATOM      9  HH  ARG D 557     -30.808  -1.477 -17.229  1.00 35.49     0.174 HD
ATOM     10  HH  ARG D 557     -30.741  -2.922 -17.559  1.00 35.49     0.174 HD
ATOM     11  HH  ARG D 557     -27.519  -3.272 -17.324  1.00 35.49     0.174 HD
ATOM     12  HH  ARG D 557     -28.773  -4.013 -17.618  1.00 35.49     0.174 HD
ATOM     13  HE  ARG D 557     -27.519  -1.233 -16.765  1.00 35.49     0.178 HD
ENDBRANCH   4   5
ENDBRANCH   3   4
ENDBRANCH   2   3
ENDBRANCH   1   2
END_RES ARG D 557
BEGIN_RES GLU D 570
REMARK  3 active torsions:
REMARK  status: ('A' for Active; 'I' for Inactive)
REMARK    5  A    between atoms: CA   and  CB  
REMARK    6  A    between atoms: CB   and  CG  
REMARK    7  A    between atoms: CG   and  CD  
ROOT
ATOM     14  CA  GLU D 570     -18.033  -6.348 -13.375  1.00 32.92     0.160 C 
ENDROOT
BRANCH  14  15
ATOM     15  CB  GLU D 570     -19.500  -6.345 -13.794  1.00 32.92     0.043 C 
BRANCH  15  16
ATOM     16  CG  GLU D 570     -19.812  -5.950 -15.192  1.00 32.92     0.100 C 
BRANCH  16  17
ATOM     17  CD  GLU D 570     -21.261  -5.571 -15.388  1.00 32.92     0.185 C 
ATOM     18  OE1 GLU D 570     -22.120  -6.046 -14.620  1.00 32.92    -0.647 OA
ATOM     19  OE2 GLU D 570     -21.543  -4.805 -16.330  1.00 32.92    -0.647 OA
ENDBRANCH  16  17
ENDBRANCH  15  16
ENDBRANCH  14  15
END_RES GLU D 570
ENDMDL
MODEL 4
REMARK VINA RESULT:      -7.2      2.459      4.697
REMARK  22 active torsions:
REMARK  status: ('A' for Active; 'I' for Inactive)
REMARK    1  A    between atoms: C_5  and  C_33 
REMARK    2  A    between atoms: C_19  and  O_26 
REMARK    3  A    between atoms: C_20  and  O_25 
REMARK    4  A    between atoms: C_21  and  C_23 
REMARK    5  A    between atoms: C_23  and  O_24 
REMARK    6  A    between atoms: C_33  and  O_35 
REMARK    7  A    between atoms: O_35  and  C_36 
REMARK    8  A    between atoms: C_37  and  O_67 
REMARK    9  A    between atoms: C_38  and  O_66 
REMARK   10  A    between atoms: C_39  and  O_65 
REMARK   11  A    between atoms: C_40  and  C_42 
REMARK   12  A    between atoms: C_42  and  O_43 
REMARK   13  A    between atoms: O_43  and  C_44 
REMARK   14  A    between atoms: C_45  and  O_64 
REMARK   15  A    between atoms: C_46  and  O_63 
REMARK   16  A    between atoms: C_47  and  O_52 
REMARK   17  A    between atoms: C_48  and  C_50 
REMARK   18  A    between atoms: C_50  and  O_51 
REMARK   19  A    between atoms: O_52  and  C_53 
REMARK   20  A    between atoms: C_54  and  O_62 
REMARK   21  A    between atoms: C_55  and  O_61 
REMARK   22  A    between atoms: C_56  and  O_60 
ROOT
HETATM    1  C   UNL     1     -19.210  -9.911  -4.345  1.00  0.00     0.301 C 
HETATM    2  C   UNL     1     -20.093  -9.694  -3.105  1.00  0.00     0.205 C 
HETATM    3  C   UNL     1     -21.401  -9.005  -3.540  1.00  0.00     0.183 C 
HETATM    4  C   UNL     1     -21.174  -7.651  -4.257  1.00  0.00     0.180 C 
HETATM    5  C   UNL     1     -20.132  -7.824  -5.397  1.00  0.00     0.180 C 
HETATM    6  O   UNL     1     -18.968  -8.601  -4.983  1.00  0.00    -0.348 OA
ENDROOT
BRANCH   1   7
HETATM    7  O   UNL     1     -19.809 -10.902  -5.220  1.00  0.00    -0.286 OA
BRANCH   7   8
HETATM    8  C   UNL     1     -19.185 -11.444  -6.361  1.00  0.00     0.270 C 
HETATM    9  O   UNL     1     -18.561 -10.790  -7.178  1.00  0.00    -0.264 OA
BRANCH   8  10
HETATM   10  C   UNL     1     -19.384 -13.033  -6.318  1.00  0.00     0.056 C 
HETATM   11  C   UNL     1     -20.331 -13.242  -7.514  1.00  0.00     0.021 C 
HETATM   12  C   UNL     1     -21.728 -12.802  -7.096  1.00  0.00     0.006 C 
HETATM   13  C   UNL     1     -22.335 -13.848  -6.163  1.00  0.00    -0.014 C 
HETATM   14  C   UNL     1     -23.843 -13.572  -6.054  1.00  0.00     0.010 C 
HETATM   15  C   UNL     1     -21.502 -13.963  -4.824  1.00  0.00    -0.005 C 
HETATM   16  C   UNL     1     -19.930 -14.080  -5.135  1.00  0.00     0.037 C 
HETATM   17  C   UNL     1     -21.934 -12.890  -3.817  1.00  0.00     0.011 C 
HETATM   18  C   UNL     1     -18.859 -14.666  -4.058  1.00  0.00    -0.069 C 
HETATM   19  C   UNL     1     -17.419 -14.129  -4.209  1.00  0.00    -0.013 C 
HETATM   20  C   UNL     1     -18.981 -15.549  -2.995  1.00  0.00    -0.022 C 
HETATM   21  C   UNL     1     -17.176 -13.092  -5.282  1.00  0.00     0.016 C 
HETATM   22  C   UNL     1     -17.067 -13.620  -2.672  1.00  0.00    -0.028 C 
HETATM   23  C   UNL     1     -16.610 -15.386  -4.840  1.00  0.00     0.021 C 
HETATM   24  C   UNL     1     -17.950 -13.492  -6.561  1.00  0.00     0.022 C 
HETATM   25  C   UNL     1     -16.500 -14.956  -2.113  1.00  0.00     0.007 C 
HETATM   26  C   UNL     1     -16.153 -12.430  -2.282  1.00  0.00     0.011 C 
HETATM   27  C   UNL     1     -18.417 -13.070  -1.919  1.00  0.00     0.016 C 
HETATM   28  C   UNL     1     -17.801 -15.819  -1.849  1.00  0.00     0.033 C 
HETATM   29  C   UNL     1     -14.942 -14.894  -1.647  1.00  0.00    -0.033 C 
HETATM   30  C   UNL     1     -14.782 -13.898  -0.490  1.00  0.00     0.007 C 
HETATM   31  C   UNL     1     -14.286 -16.310  -1.475  1.00  0.00     0.044 C 
HETATM   32  C   UNL     1     -13.950 -14.303  -2.766  1.00  0.00     0.016 C 
HETATM   33  C   UNL     1     -15.562 -12.580  -0.825  1.00  0.00     0.007 C 
HETATM   34  C   UNL     1     -14.859 -14.520   0.966  1.00  0.00     0.010 C 
HETATM   35  C   UNL     1     -14.705 -16.077   0.942  1.00  0.00     0.157 C 
HETATM   36  C   UNL     1     -13.726 -13.859   1.806  1.00  0.00     0.020 C 
HETATM   37  C   UNL     1     -13.750 -16.627  -0.100  1.00  0.00     0.148 C 
BRANCH  34  38
HETATM   38  C   UNL     1     -16.202 -14.228   1.705  1.00  0.00     0.176 C 
BRANCH  38  39
HETATM   39  O   UNL     1     -17.059 -15.349   1.693  1.00  0.00    -0.400 OA
HETATM   40  H   UNL     1     -16.588 -16.120   1.329  1.00  0.00     0.209 HD
ENDBRANCH  38  39
ENDBRANCH  34  38
BRANCH  35  41
HETATM   41  O   UNL     1     -14.322 -16.574   2.231  1.00  0.00    -0.392 OA
HETATM   42  H   UNL     1     -14.039 -17.501   2.085  1.00  0.00     0.210 HD
ENDBRANCH  35  41
BRANCH  37  43
HETATM   43  O   UNL     1     -12.423 -16.152   0.117  1.00  0.00    -0.393 OA
HETATM   44  H   UNL     1     -11.927 -16.801   0.642  1.00  0.00     0.210 HD
ENDBRANCH  37  43
ENDBRANCH   8  10
ENDBRANCH   7   8
ENDBRANCH   1   7
BRANCH   2  45
HETATM   45  O   UNL     1     -19.438  -8.901  -2.106  1.00  0.00    -0.388 OA
HETATM   46  H   UNL     1     -19.893  -9.028  -1.254  1.00  0.00     0.210 HD
ENDBRANCH   2  45
BRANCH   3  47
HETATM   47  O   UNL     1     -22.323  -8.912  -2.448  1.00  0.00    -0.390 OA
HETATM   48  H   UNL     1     -22.369  -7.976  -2.167  1.00  0.00     0.210 HD
ENDBRANCH   3  47
BRANCH   5  49
HETATM   49  C   UNL     1     -19.728  -6.418  -6.035  1.00  0.00     0.205 C 
BRANCH  49  50
HETATM   50  O   UNL     1     -20.853  -5.552  -6.236  1.00  0.00    -0.356 OA
BRANCH  50  51
HETATM   51  C   UNL     1     -20.677  -4.368  -7.044  1.00  0.00     0.291 C 
HETATM   52  C   UNL     1     -22.077  -3.821  -7.315  1.00  0.00     0.204 C 
HETATM   53  C   UNL     1     -22.837  -4.918  -8.071  1.00  0.00     0.183 C 
HETATM   54  C   UNL     1     -22.288  -5.098  -9.506  1.00  0.00     0.187 C 
HETATM   55  C   UNL     1     -20.706  -5.201  -9.401  1.00  0.00     0.180 C 
HETATM   56  O   UNL     1     -20.022  -4.530  -8.304  1.00  0.00    -0.348 OA
BRANCH  52  57
HETATM   57  O   UNL     1     -22.087  -2.581  -8.035  1.00  0.00    -0.388 OA
HETATM   58  H   UNL     1     -22.027  -1.834  -7.406  1.00  0.00     0.210 HD
ENDBRANCH  52  57
BRANCH  53  59
HETATM   59  O   UNL     1     -24.236  -4.698  -7.944  1.00  0.00    -0.390 OA
HETATM   60  H   UNL     1     -24.671  -5.567  -8.070  1.00  0.00     0.210 HD
ENDBRANCH  53  59
BRANCH  54  61
HETATM   61  O   UNL     1     -22.755  -4.111 -10.476  1.00  0.00    -0.348 OA
BRANCH  61  62
HETATM   62  C   UNL     1     -23.498  -4.656 -11.600  1.00  0.00     0.292 C 
HETATM   63  C   UNL     1     -22.675  -5.163 -12.826  1.00  0.00     0.204 C 
HETATM   64  C   UNL     1     -22.363  -3.991 -13.791  1.00  0.00     0.183 C 
HETATM   65  C   UNL     1     -23.628  -3.207 -14.159  1.00  0.00     0.178 C 
HETATM   66  C   UNL     1     -24.395  -2.788 -12.893  1.00  0.00     0.152 C 
HETATM   67  O   UNL     1     -24.624  -3.849 -11.972  1.00  0.00    -0.351 OA
HETATM   68  C   UNL     1     -25.783  -2.246 -13.267  1.00  0.00     0.042 C 
BRANCH  63  69
HETATM   69  O   UNL     1     -23.371  -6.246 -13.492  1.00  0.00    -0.388 OA
HETATM   70  H   UNL     1     -24.294  -5.954 -13.613  1.00  0.00     0.210 HD
ENDBRANCH  63  69
BRANCH  64  71
HETATM   71  O   UNL     1     -21.731  -4.410 -15.011  1.00  0.00    -0.390 OA
HETATM   72  H   UNL     1     -21.617  -3.639 -15.597  1.00  0.00     0.210 HD
ENDBRANCH  64  71
BRANCH  65  73
HETATM   73  O   UNL     1     -24.479  -3.970 -15.027  1.00  0.00    -0.390 OA
HETATM   74  H   UNL     1     -25.345  -3.517 -15.051  1.00  0.00     0.210 HD
ENDBRANCH  65  73
ENDBRANCH  61  62
ENDBRANCH  54  61
BRANCH  55  75
HETATM   75  C   UNL     1     -19.990  -4.708 -10.679  1.00  0.00     0.198 C 
BRANCH  75  76
HETATM   76  O   UNL     1     -20.207  -3.301 -10.840  1.00  0.00    -0.398 OA
HETATM   77  H   UNL     1     -19.679  -3.068 -11.632  1.00  0.00     0.209 HD
ENDBRANCH  75  76
ENDBRANCH  55  75
ENDBRANCH  50  51
ENDBRANCH  49  50
ENDBRANCH   5  49
BRANCH   4  78
HETATM   78  O   UNL     1     -20.844  -6.587  -3.354  1.00  0.00    -0.390 OA
HETATM   79  H   UNL     1     -20.486  -5.852  -3.888  1.00  0.00     0.210 HD
ENDBRANCH   4  78
TORSDOF 22
BEGIN_RES ARG D 557
REMARK  4 active torsions:
REMARK  status: ('A' for Active; 'I' for Inactive)
REMARK    1  A    between atoms: CA   and  CB  
REMARK    2  A    between atoms: CB   and  CG  
REMARK    3  A    between atoms: CG   and  CD  
REMARK    4  A    between atoms: CD   and  NE  
REMARK       I    between atoms: NE   and  CZ  
REMARK       I    between atoms: CZ   and  NH1 
REMARK       I    between atoms: CZ   and  NH2 
ROOT
ATOM      1  CA  ARG D 557     -26.217   2.705 -17.014  1.00 35.49     0.159 C 
ENDROOT
BRANCH   1   2
ATOM      2  CB  ARG D 557     -26.789   1.319 -17.183  1.00 35.49     0.034 C 
BRANCH   2   3
ATOM      3  CG  ARG D 557     -28.228   1.227 -17.457  1.00 35.49     0.027 C 
BRANCH   3   4
ATOM      4  CD  ARG D 557     -28.923   0.312 -16.524  1.00 35.49     0.116 C 
BRANCH   4   5
ATOM      5  NE  ARG D 557     -29.308  -0.921 -17.159  1.00 35.49    -0.212 N 
ATOM      6  CZ  ARG D 557     -28.673  -2.068 -17.058  1.00 35.49     0.666 C 
ATOM      7  NH1 ARG D 557     -27.568  -2.206 -16.349  1.00 35.49    -0.235 N 
ATOM      8  NH2 ARG D 557     -29.176  -3.090 -17.686  1.00 35.49    -0.235 N 
ATOM      9  HH  ARG D 557     -27.220  -1.547 -15.926  1.00 35.49     0.174 HD
ATOM     10  HH  ARG D 557     -27.199  -2.979 -16.317  1.00 35.49     0.174 HD
ATOM     11  HH  ARG D 557     -29.895  -2.973 -18.130  1.00 35.49     0.174 HD
ATOM     12  HH  ARG D 557     -28.797  -3.847 -17.641  1.00 35.49     0.174 HD
ATOM     13  HE  ARG D 557     -29.968  -0.906 -17.694  1.00 35.49     0.178 HD
ENDBRANCH   4   5
ENDBRANCH   3   4
ENDBRANCH   2   3
ENDBRANCH   1   2
END_RES ARG D 557
BEGIN_RES GLU D 570
REMARK  3 active torsions:
REMARK  status: ('A' for Active; 'I' for Inactive)
REMARK    5  A    between atoms: CA   and  CB  
REMARK    6  A    between atoms: CB   and  CG  
REMARK    7  A    between atoms: CG   and  CD  
ROOT
ATOM     14  CA  GLU D 570     -18.033  -6.348 -13.375  1.00 32.92     0.160 C 
ENDROOT
BRANCH  14  15
ATOM     15  CB  GLU D 570     -19.500  -6.345 -13.794  1.00 32.92     0.043 C 
BRANCH  15  16
ATOM     16  CG  GLU D 570     -20.161  -7.662 -13.982  1.00 32.92     0.100 C 
BRANCH  16  17
ATOM     17  CD  GLU D 570     -20.790  -7.817 -15.347  1.00 32.92     0.185 C 
ATOM     18  OE1 GLU D 570     -20.336  -8.673 -16.129  1.00 32.92    -0.647 OA
ATOM     19  OE2 GLU D 570     -21.737  -7.061 -15.643  1.00 32.92    -0.647 OA
ENDBRANCH  16  17
ENDBRANCH  15  16
ENDBRANCH  14  15
END_RES GLU D 570
ENDMDL
MODEL 5
REMARK VINA RESULT:      -6.9      1.792      3.385
REMARK  22 active torsions:
REMARK  status: ('A' for Active; 'I' for Inactive)
REMARK    1  A    between atoms: C_5  and  C_33 
REMARK    2  A    between atoms: C_19  and  O_26 
REMARK    3  A    between atoms: C_20  and  O_25 
REMARK    4  A    between atoms: C_21  and  C_23 
REMARK    5  A    between atoms: C_23  and  O_24 
REMARK    6  A    between atoms: C_33  and  O_35 
REMARK    7  A    between atoms: O_35  and  C_36 
REMARK    8  A    between atoms: C_37  and  O_67 
REMARK    9  A    between atoms: C_38  and  O_66 
REMARK   10  A    between atoms: C_39  and  O_65 
REMARK   11  A    between atoms: C_40  and  C_42 
REMARK   12  A    between atoms: C_42  and  O_43 
REMARK   13  A    between atoms: O_43  and  C_44 
REMARK   14  A    between atoms: C_45  and  O_64 
REMARK   15  A    between atoms: C_46  and  O_63 
REMARK   16  A    between atoms: C_47  and  O_52 
REMARK   17  A    between atoms: C_48  and  C_50 
REMARK   18  A    between atoms: C_50  and  O_51 
REMARK   19  A    between atoms: O_52  and  C_53 
REMARK   20  A    between atoms: C_54  and  O_62 
REMARK   21  A    between atoms: C_55  and  O_61 
REMARK   22  A    between atoms: C_56  and  O_60 
ROOT
HETATM    1  C   UNL     1     -20.981 -12.223  -2.159  1.00  0.00     0.301 C 
HETATM    2  C   UNL     1     -21.376 -11.225  -1.058  1.00  0.00     0.205 C 
HETATM    3  C   UNL     1     -22.291 -10.146  -1.669  1.00  0.00     0.183 C 
HETATM    4  C   UNL     1     -21.641  -9.384  -2.850  1.00  0.00     0.180 C 
HETATM    5  C   UNL     1     -21.067 -10.396  -3.880  1.00  0.00     0.180 C 
HETATM    6  O   UNL     1     -20.319 -11.479  -3.250  1.00  0.00    -0.348 OA
ENDROOT
BRANCH   1   7
HETATM    7  O   UNL     1     -22.137 -12.995  -2.574  1.00  0.00    -0.286 OA
BRANCH   7   8
HETATM    8  C   UNL     1     -22.161 -13.871  -3.677  1.00  0.00     0.270 C 
HETATM    9  O   UNL     1     -22.189 -13.509  -4.840  1.00  0.00    -0.264 OA
BRANCH   8  10
HETATM   10  C   UNL     1     -22.060 -15.367  -3.116  1.00  0.00     0.056 C 
HETATM   11  C   UNL     1     -23.398 -15.953  -3.600  1.00  0.00     0.021 C 
HETATM   12  C   UNL     1     -24.505 -15.419  -2.700  1.00  0.00     0.006 C 
HETATM   13  C   UNL     1     -24.446 -16.125  -1.346  1.00  0.00    -0.014 C 
HETATM   14  C   UNL     1     -25.763 -15.845  -0.604  1.00  0.00     0.010 C 
HETATM   15  C   UNL     1     -23.090 -15.803  -0.598  1.00  0.00    -0.005 C 
HETATM   16  C   UNL     1     -21.834 -15.995  -1.582  1.00  0.00     0.037 C 
HETATM   17  C   UNL     1     -23.185 -14.472   0.158  1.00  0.00     0.011 C 
HETATM   18  C   UNL     1     -20.313 -16.200  -1.040  1.00  0.00    -0.069 C 
HETATM   19  C   UNL     1     -19.205 -15.722  -2.004  1.00  0.00    -0.013 C 
HETATM   20  C   UNL     1     -19.796 -16.705   0.144  1.00  0.00    -0.022 C 
HETATM   21  C   UNL     1     -19.645 -15.073  -3.297  1.00  0.00     0.016 C 
HETATM   22  C   UNL     1     -18.282 -14.751  -1.030  1.00  0.00    -0.028 C 
HETATM   23  C   UNL     1     -18.580 -17.104  -2.579  1.00  0.00     0.021 C 
HETATM   24  C   UNL     1     -20.839 -15.864  -3.883  1.00  0.00     0.022 C 
HETATM   25  C   UNL     1     -17.316 -15.837  -0.475  1.00  0.00     0.007 C 
HETATM   26  C   UNL     1     -17.494 -13.488  -1.467  1.00  0.00     0.011 C 
HETATM   27  C   UNL     1     -19.212 -14.006   0.098  1.00  0.00     0.016 C 
HETATM   28  C   UNL     1     -18.198 -16.586   0.605  1.00  0.00     0.033 C 
HETATM   29  C   UNL     1     -15.748 -15.613  -0.852  1.00  0.00    -0.033 C 
HETATM   30  C   UNL     1     -15.244 -14.302  -0.234  1.00  0.00     0.007 C 
HETATM   31  C   UNL     1     -14.868 -16.895  -0.640  1.00  0.00     0.044 C 
HETATM   32  C   UNL     1     -15.482 -15.393  -2.422  1.00  0.00     0.016 C 
HETATM   33  C   UNL     1     -16.291 -13.165  -0.495  1.00  0.00     0.007 C 
HETATM   34  C   UNL     1     -14.552 -14.434   1.185  1.00  0.00     0.010 C 
HETATM   35  C   UNL     1     -14.177 -15.918   1.514  1.00  0.00     0.157 C 
HETATM   36  C   UNL     1     -13.283 -13.530   1.162  1.00  0.00     0.020 C 
HETATM   37  C   UNL     1     -13.724 -16.757   0.335  1.00  0.00     0.148 C 
BRANCH  34  38
HETATM   38  C   UNL     1     -15.440 -13.939   2.368  1.00  0.00     0.176 C 
BRANCH  38  39
HETATM   39  O   UNL     1     -15.996 -15.017   3.090  1.00  0.00    -0.400 OA
HETATM   40  H   UNL     1     -15.420 -15.798   3.011  1.00  0.00     0.209 HD
ENDBRANCH  38  39
ENDBRANCH  34  38
BRANCH  35  41
HETATM   41  O   UNL     1     -13.177 -15.980   2.539  1.00  0.00    -0.392 OA
HETATM   42  H   UNL     1     -13.197 -15.107   2.983  1.00  0.00     0.210 HD
ENDBRANCH  35  41
BRANCH  37  43
HETATM   43  O   UNL     1     -12.539 -16.223  -0.251  1.00  0.00    -0.393 OA
HETATM   44  H   UNL     1     -11.970 -15.852   0.443  1.00  0.00     0.210 HD
ENDBRANCH  37  43
ENDBRANCH   8  10
ENDBRANCH   7   8
ENDBRANCH   1   7
BRANCH   2  45
HETATM   45  O   UNL     1     -20.232 -10.603  -0.456  1.00  0.00    -0.388 OA
HETATM   46  H   UNL     1     -19.602 -10.355  -1.157  1.00  0.00     0.210 HD
ENDBRANCH   2  45
BRANCH   3  47
HETATM   47  O   UNL     1     -22.809  -9.274  -0.657  1.00  0.00    -0.390 OA
HETATM   48  H   UNL     1     -22.108  -8.634  -0.420  1.00  0.00     0.210 HD
ENDBRANCH   3  47
BRANCH   5  49
HETATM   49  C   UNL     1     -20.223  -9.656  -5.015  1.00  0.00     0.205 C 
BRANCH  49  50
HETATM   50  O   UNL     1     -20.859  -8.465  -5.498  1.00  0.00    -0.356 OA
BRANCH  50  51
HETATM   51  C   UNL     1     -20.170  -7.204  -5.347  1.00  0.00     0.291 C 
HETATM   52  C   UNL     1     -21.229  -6.184  -4.934  1.00  0.00     0.204 C 
HETATM   53  C   UNL     1     -22.259  -6.137  -6.069  1.00  0.00     0.183 C 
HETATM   54  C   UNL     1     -21.670  -5.480  -7.339  1.00  0.00     0.187 C 
HETATM   55  C   UNL     1     -20.261  -6.160  -7.616  1.00  0.00     0.180 C 
HETATM   56  O   UNL     1     -19.495  -6.689  -6.496  1.00  0.00    -0.348 OA
BRANCH  52  57
HETATM   57  O   UNL     1     -20.700  -4.882  -4.648  1.00  0.00    -0.388 OA
HETATM   58  H   UNL     1     -20.330  -4.490  -5.465  1.00  0.00     0.210 HD
ENDBRANCH  52  57
BRANCH  53  59
HETATM   59  O   UNL     1     -23.481  -5.599  -5.578  1.00  0.00    -0.390 OA
HETATM   60  H   UNL     1     -23.475  -4.644  -5.793  1.00  0.00     0.210 HD
ENDBRANCH  53  59
BRANCH  54  61
HETATM   61  O   UNL     1     -21.631  -4.020  -7.319  1.00  0.00    -0.348 OA
BRANCH  61  62
HETATM   62  C   UNL     1     -22.407  -3.369  -8.363  1.00  0.00     0.292 C 
HETATM   63  C   UNL     1     -23.904  -3.785  -8.508  1.00  0.00     0.204 C 
HETATM   64  C   UNL     1     -24.033  -5.043  -9.404  1.00  0.00     0.183 C 
HETATM   65  C   UNL     1     -23.292  -4.869 -10.735  1.00  0.00     0.178 C 
HETATM   66  C   UNL     1     -21.840  -4.417 -10.495  1.00  0.00     0.152 C 
HETATM   67  O   UNL     1     -21.715  -3.304  -9.617  1.00  0.00    -0.351 OA
HETATM   68  C   UNL     1     -21.191  -3.988 -11.819  1.00  0.00     0.042 C 
BRANCH  63  69
HETATM   69  O   UNL     1     -24.692  -2.677  -9.010  1.00  0.00    -0.388 OA
HETATM   70  H   UNL     1     -25.630  -2.919  -8.885  1.00  0.00     0.210 HD
ENDBRANCH  63  69
BRANCH  64  71
HETATM   71  O   UNL     1     -25.393  -5.398  -9.698  1.00  0.00    -0.390 OA
HETATM   72  H   UNL     1     -25.539  -5.349 -10.660  1.00  0.00     0.210 HD
ENDBRANCH  64  71
BRANCH  65  73
HETATM   73  O   UNL     1     -23.968  -3.935 -11.590  1.00  0.00    -0.390 OA
HETATM   74  H   UNL     1     -23.680  -3.040 -11.322  1.00  0.00     0.210 HD
ENDBRANCH  65  73
ENDBRANCH  61  62
ENDBRANCH  54  61
BRANCH  55  75
HETATM   75  C   UNL     1     -19.282  -5.223  -8.361  1.00  0.00     0.198 C 
BRANCH  75  76
HETATM   76  O   UNL     1     -18.641  -4.351  -7.422  1.00  0.00    -0.398 OA
HETATM   77  H   UNL     1     -18.327  -3.603  -7.969  1.00  0.00     0.209 HD
ENDBRANCH  75  76
ENDBRANCH  55  75
ENDBRANCH  50  51
ENDBRANCH  49  50
ENDBRANCH   5  49
BRANCH   4  78
HETATM   78  O   UNL     1     -20.678  -8.410  -2.426  1.00  0.00    -0.390 OA
HETATM   79  H   UNL     1     -19.832  -8.626  -2.864  1.00  0.00     0.210 HD
ENDBRANCH   4  78
TORSDOF 22
BEGIN_RES ARG D 557
REMARK  4 active torsions:
REMARK  status: ('A' for Active; 'I' for Inactive)
REMARK    1  A    between atoms: CA   and  CB  
REMARK    2  A    between atoms: CB   and  CG  
REMARK    3  A    between atoms: CG   and  CD  
REMARK    4  A    between atoms: CD   and  NE  
REMARK       I    between atoms: NE   and  CZ  
REMARK       I    between atoms: CZ   and  NH1 
REMARK       I    between atoms: CZ   and  NH2 
ROOT
ATOM      1  CA  ARG D 557     -26.217   2.705 -17.014  1.00 35.49     0.159 C 
ENDROOT
BRANCH   1   2
ATOM      2  CB  ARG D 557     -26.789   1.319 -17.183  1.00 35.49     0.034 C 
BRANCH   2   3
ATOM      3  CG  ARG D 557     -25.864   0.195 -16.994  1.00 35.49     0.027 C 
BRANCH   3   4
ATOM      4  CD  ARG D 557     -26.202  -0.620 -15.805  1.00 35.49     0.116 C 
BRANCH   4   5
ATOM      5  NE  ARG D 557     -25.066  -0.824 -14.946  1.00 35.49    -0.212 N 
ATOM      6  CZ  ARG D 557     -24.776  -1.935 -14.306  1.00 35.49     0.666 C 
ATOM      7  NH1 ARG D 557     -25.534  -3.013 -14.378  1.00 35.49    -0.235 N 
ATOM      8  NH2 ARG D 557     -23.691  -1.949 -13.587  1.00 35.49    -0.235 N 
ATOM      9  HH  ARG D 557     -26.251  -3.028 -14.847  1.00 35.49     0.174 HD
ATOM     10  HH  ARG D 557     -25.294  -3.710 -13.942  1.00 35.49     0.174 HD
ATOM     11  HH  ARG D 557     -23.217  -1.240 -13.565  1.00 35.49     0.174 HD
ATOM     12  HH  ARG D 557     -23.469  -2.649 -13.163  1.00 35.49     0.174 HD
ATOM     13  HE  ARG D 557     -24.562  -0.158 -14.785  1.00 35.49     0.178 HD
ENDBRANCH   4   5
ENDBRANCH   3   4
ENDBRANCH   2   3
ENDBRANCH   1   2
END_RES ARG D 557
BEGIN_RES GLU D 570
REMARK  3 active torsions:
REMARK  status: ('A' for Active; 'I' for Inactive)
REMARK    5  A    between atoms: CA   and  CB  
REMARK    6  A    between atoms: CB   and  CG  
REMARK    7  A    between atoms: CG   and  CD  
ROOT
ATOM     14  CA  GLU D 570     -18.033  -6.348 -13.375  1.00 32.92     0.160 C 
ENDROOT
BRANCH  14  15
ATOM     15  CB  GLU D 570     -19.500  -6.345 -13.794  1.00 32.92     0.043 C 
BRANCH  15  16
ATOM     16  CG  GLU D 570     -19.809  -5.983 -15.202  1.00 32.92     0.100 C 
BRANCH  16  17
ATOM     17  CD  GLU D 570     -21.259  -5.610 -15.409  1.00 32.92     0.185 C 
ATOM     18  OE1 GLU D 570     -21.587  -5.019 -16.456  1.00 32.92    -0.647 OA
ATOM     19  OE2 GLU D 570     -22.071  -5.898 -14.509  1.00 32.92    -0.647 OA
ENDBRANCH  16  17
ENDBRANCH  15  16
ENDBRANCH  14  15
END_RES GLU D 570
ENDMDL
MODEL 6
REMARK VINA RESULT:      -6.3      2.578      6.993
REMARK  22 active torsions:
REMARK  status: ('A' for Active; 'I' for Inactive)
REMARK    1  A    between atoms: C_5  and  C_33 
REMARK    2  A    between atoms: C_19  and  O_26 
REMARK    3  A    between atoms: C_20  and  O_25 
REMARK    4  A    between atoms: C_21  and  C_23 
REMARK    5  A    between atoms: C_23  and  O_24 
REMARK    6  A    between atoms: C_33  and  O_35 
REMARK    7  A    between atoms: O_35  and  C_36 
REMARK    8  A    between atoms: C_37  and  O_67 
REMARK    9  A    between atoms: C_38  and  O_66 
REMARK   10  A    between atoms: C_39  and  O_65 
REMARK   11  A    between atoms: C_40  and  C_42 
REMARK   12  A    between atoms: C_42  and  O_43 
REMARK   13  A    between atoms: O_43  and  C_44 
REMARK   14  A    between atoms: C_45  and  O_64 
REMARK   15  A    between atoms: C_46  and  O_63 
REMARK   16  A    between atoms: C_47  and  O_52 
REMARK   17  A    between atoms: C_48  and  C_50 
REMARK   18  A    between atoms: C_50  and  O_51 
REMARK   19  A    between atoms: O_52  and  C_53 
REMARK   20  A    between atoms: C_54  and  O_62 
REMARK   21  A    between atoms: C_55  and  O_61 
REMARK   22  A    between atoms: C_56  and  O_60 
ROOT
HETATM    1  C   UNL     1     -20.507  -9.763  -1.472  1.00  0.00     0.301 C 
HETATM    2  C   UNL     1     -20.883  -8.391  -0.887  1.00  0.00     0.205 C 
HETATM    3  C   UNL     1     -22.160  -7.885  -1.585  1.00  0.00     0.183 C 
HETATM    4  C   UNL     1     -22.015  -7.769  -3.123  1.00  0.00     0.180 C 
HETATM    5  C   UNL     1     -21.451  -9.096  -3.702  1.00  0.00     0.180 C 
HETATM    6  O   UNL     1     -20.326  -9.616  -2.931  1.00  0.00    -0.348 OA
ENDROOT
BRANCH   1   7
HETATM    7  O   UNL     1     -21.489 -10.759  -1.087  1.00  0.00    -0.286 OA
BRANCH   7   8
HETATM    8  C   UNL     1     -21.372 -11.607   0.033  1.00  0.00     0.270 C 
HETATM    9  O   UNL     1     -21.327 -11.218   1.186  1.00  0.00    -0.264 OA
BRANCH   8  10
HETATM   10  C   UNL     1     -21.399 -13.119  -0.495  1.00  0.00     0.056 C 
HETATM   11  C   UNL     1     -22.895 -13.291  -0.816  1.00  0.00     0.021 C 
HETATM   12  C   UNL     1     -23.645 -13.469   0.497  1.00  0.00     0.006 C 
HETATM   13  C   UNL     1     -23.386 -14.871   1.047  1.00  0.00    -0.014 C 
HETATM   14  C   UNL     1     -24.419 -15.149   2.151  1.00  0.00     0.010 C 
HETATM   15  C   UNL     1     -21.857 -15.069   1.396  1.00  0.00    -0.005 C 
HETATM   16  C   UNL     1     -20.924 -14.571   0.185  1.00  0.00     0.037 C 
HETATM   17  C   UNL     1     -21.537 -14.520   2.791  1.00  0.00     0.011 C 
HETATM   18  C   UNL     1     -19.377 -15.043   0.012  1.00  0.00    -0.069 C 
HETATM   19  C   UNL     1     -18.466 -14.042  -0.732  1.00  0.00    -0.013 C 
HETATM   20  C   UNL     1     -18.686 -16.174   0.425  1.00  0.00    -0.022 C 
HETATM   21  C   UNL     1     -19.084 -12.729  -1.159  1.00  0.00     0.016 C 
HETATM   22  C   UNL     1     -17.184 -13.890   0.306  1.00  0.00    -0.028 C 
HETATM   23  C   UNL     1     -18.244 -14.736  -2.181  1.00  0.00     0.021 C 
HETATM   24  C   UNL     1     -20.501 -12.994  -1.721  1.00  0.00     0.022 C 
HETATM   25  C   UNL     1     -16.315 -15.063  -0.231  1.00  0.00     0.007 C 
HETATM   26  C   UNL     1     -16.319 -12.621   0.523  1.00  0.00     0.011 C 
HETATM   27  C   UNL     1     -17.675 -14.045   1.864  1.00  0.00     0.016 C 
HETATM   28  C   UNL     1     -17.028 -16.343   0.367  1.00  0.00     0.033 C 
HETATM   29  C   UNL     1     -14.868 -14.621  -0.833  1.00  0.00    -0.033 C 
HETATM   30  C   UNL     1     -14.013 -13.988   0.273  1.00  0.00     0.007 C 
HETATM   31  C   UNL     1     -14.197 -15.731  -1.717  1.00  0.00     0.044 C 
HETATM   32  C   UNL     1     -14.951 -13.452  -1.933  1.00  0.00     0.016 C 
HETATM   33  C   UNL     1     -14.881 -12.962   1.081  1.00  0.00     0.007 C 
HETATM   34  C   UNL     1     -13.035 -14.975   1.034  1.00  0.00     0.010 C 
HETATM   35  C   UNL     1     -12.853 -16.324   0.262  1.00  0.00     0.157 C 
HETATM   36  C   UNL     1     -11.673 -14.237   1.195  1.00  0.00     0.020 C 
HETATM   37  C   UNL     1     -12.847 -16.219  -1.251  1.00  0.00     0.148 C 
BRANCH  34  38
HETATM   38  C   UNL     1     -13.516 -15.358   2.468  1.00  0.00     0.176 C 
BRANCH  38  39
HETATM   39  O   UNL     1     -14.131 -16.628   2.491  1.00  0.00    -0.400 OA
HETATM   40  H   UNL     1     -15.080 -16.532   2.689  1.00  0.00     0.209 HD
ENDBRANCH  38  39
ENDBRANCH  34  38
BRANCH  35  41
HETATM   41  O   UNL     1     -11.664 -17.002   0.685  1.00  0.00    -0.392 OA
HETATM   42  H   UNL     1     -11.799 -17.209   1.633  1.00  0.00     0.210 HD
ENDBRANCH  35  41
BRANCH  37  43
HETATM   43  O   UNL     1     -11.762 -15.413  -1.706  1.00  0.00    -0.393 OA
HETATM   44  H   UNL     1     -11.781 -14.554  -1.252  1.00  0.00     0.210 HD
ENDBRANCH  37  43
ENDBRANCH   8  10
ENDBRANCH   7   8
ENDBRANCH   1   7
BRANCH   2  45
HETATM   45  O   UNL     1     -19.831  -7.429  -1.044  1.00  0.00    -0.388 OA
HETATM   46  H   UNL     1     -19.561  -7.110  -0.163  1.00  0.00     0.210 HD
ENDBRANCH   2  45
BRANCH   3  47
HETATM   47  O   UNL     1     -22.638  -6.680  -0.976  1.00  0.00    -0.390 OA
HETATM   48  H   UNL     1     -23.086  -6.919  -0.140  1.00  0.00     0.210 HD
ENDBRANCH   3  47
BRANCH   5  49
HETATM   49  C   UNL     1     -21.107  -8.954  -5.255  1.00  0.00     0.205 C 
BRANCH  49  50
HETATM   50  O   UNL     1     -20.127  -9.902  -5.699  1.00  0.00    -0.356 OA
BRANCH  50  51
HETATM   51  C   UNL     1     -20.535 -11.273  -5.900  1.00  0.00     0.291 C 
HETATM   52  C   UNL     1     -19.740 -12.108  -4.898  1.00  0.00     0.204 C 
HETATM   53  C   UNL     1     -18.259 -11.901  -5.231  1.00  0.00     0.183 C 
HETATM   54  C   UNL     1     -17.881 -12.577  -6.570  1.00  0.00     0.187 C 
HETATM   55  C   UNL     1     -18.971 -12.147  -7.643  1.00  0.00     0.180 C 
HETATM   56  O   UNL     1     -20.321 -11.832  -7.198  1.00  0.00    -0.348 OA
BRANCH  52  57
HETATM   57  O   UNL     1     -20.090 -13.500  -4.895  1.00  0.00    -0.388 OA
HETATM   58  H   UNL     1     -19.850 -13.902  -5.754  1.00  0.00     0.210 HD
ENDBRANCH  52  57
BRANCH  53  59
HETATM   59  O   UNL     1     -17.466 -12.238  -4.099  1.00  0.00    -0.390 OA
HETATM   60  H   UNL     1     -17.535 -13.208  -3.985  1.00  0.00     0.210 HD
ENDBRANCH  53  59
BRANCH  54  61
HETATM   61  O   UNL     1     -17.658 -14.018  -6.495  1.00  0.00    -0.348 OA
BRANCH  61  62
HETATM   62  C   UNL     1     -16.378 -14.472  -7.015  1.00  0.00     0.292 C 
HETATM   63  C   UNL     1     -15.922 -15.915  -6.636  1.00  0.00     0.204 C 
HETATM   64  C   UNL     1     -15.196 -15.912  -5.267  1.00  0.00     0.183 C 
HETATM   65  C   UNL     1     -14.080 -14.861  -5.219  1.00  0.00     0.178 C 
HETATM   66  C   UNL     1     -14.612 -13.483  -5.649  1.00  0.00     0.152 C 
HETATM   67  O   UNL     1     -15.338 -13.495  -6.873  1.00  0.00    -0.351 OA
HETATM   68  C   UNL     1     -13.446 -12.505  -5.858  1.00  0.00     0.042 C 
BRANCH  63  69
HETATM   69  O   UNL     1     -15.098 -16.480  -7.687  1.00  0.00    -0.388 OA
HETATM   70  H   UNL     1     -14.177 -16.463  -7.362  1.00  0.00     0.210 HD
ENDBRANCH  63  69
BRANCH  64  71
HETATM   71  O   UNL     1     -14.623 -17.183  -4.921  1.00  0.00    -0.390 OA
HETATM   72  H   UNL     1     -15.337 -17.829  -4.769  1.00  0.00     0.210 HD
ENDBRANCH  64  71
BRANCH  65  73
HETATM   73  O   UNL     1     -12.968 -15.245  -6.042  1.00  0.00    -0.390 OA
HETATM   74  H   UNL     1     -12.878 -14.564  -6.737  1.00  0.00     0.210 HD
ENDBRANCH  65  73
ENDBRANCH  61  62
ENDBRANCH  54  61
BRANCH  55  75
HETATM   75  C   UNL     1     -19.155 -13.199  -8.761  1.00  0.00     0.198 C 
BRANCH  75  76
HETATM   76  O   UNL     1     -19.789 -14.367  -8.225  1.00  0.00    -0.398 OA
HETATM   77  H   UNL     1     -20.547 -14.523  -8.824  1.00  0.00     0.209 HD
ENDBRANCH  75  76
ENDBRANCH  55  75
ENDBRANCH  50  51
ENDBRANCH  49  50
ENDBRANCH   5  49
BRANCH   4  78
HETATM   78  O   UNL     1     -21.264  -6.617  -3.530  1.00  0.00    -0.390 OA
HETATM   79  H   UNL     1     -21.814  -6.119  -4.164  1.00  0.00     0.210 HD
ENDBRANCH   4  78
TORSDOF 22
BEGIN_RES ARG D 557
REMARK  4 active torsions:
REMARK  status: ('A' for Active; 'I' for Inactive)
REMARK    1  A    between atoms: CA   and  CB  
REMARK    2  A    between atoms: CB   and  CG  
REMARK    3  A    between atoms: CG   and  CD  
REMARK    4  A    between atoms: CD   and  NE  
REMARK       I    between atoms: NE   and  CZ  
REMARK       I    between atoms: CZ   and  NH1 
REMARK       I    between atoms: CZ   and  NH2 
ROOT
ATOM      1  CA  ARG D 557     -26.217   2.705 -17.014  1.00 35.49     0.159 C 
ENDROOT
BRANCH   1   2
ATOM      2  CB  ARG D 557     -26.789   1.319 -17.183  1.00 35.49     0.034 C 
BRANCH   2   3
ATOM      3  CG  ARG D 557     -25.943   0.198 -16.755  1.00 35.49     0.027 C 
BRANCH   3   4
ATOM      4  CD  ARG D 557     -26.723  -0.884 -16.112  1.00 35.49     0.116 C 
BRANCH   4   5
ATOM      5  NE  ARG D 557     -25.989  -1.526 -15.053  1.00 35.49    -0.212 N 
ATOM      6  CZ  ARG D 557     -26.032  -2.805 -14.756  1.00 35.49     0.666 C 
ATOM      7  NH1 ARG D 557     -26.792  -3.662 -15.413  1.00 35.49    -0.235 N 
ATOM      8  NH2 ARG D 557     -25.283  -3.219 -13.775  1.00 35.49    -0.235 N 
ATOM      9  HH  ARG D 557     -27.292  -3.412 -16.063  1.00 35.49     0.174 HD
ATOM     10  HH  ARG D 557     -26.778  -4.485 -15.176  1.00 35.49     0.174 HD
ATOM     11  HH  ARG D 557     -24.796  -2.645 -13.374  1.00 35.49     0.174 HD
ATOM     12  HH  ARG D 557     -25.281  -4.038 -13.557  1.00 35.49     0.174 HD
ATOM     13  HE  ARG D 557     -25.529  -1.036 -14.532  1.00 35.49     0.178 HD
ENDBRANCH   4   5
ENDBRANCH   3   4
ENDBRANCH   2   3
ENDBRANCH   1   2
END_RES ARG D 557
BEGIN_RES GLU D 570
REMARK  3 active torsions:
REMARK  status: ('A' for Active; 'I' for Inactive)
REMARK    5  A    between atoms: CA   and  CB  
REMARK    6  A    between atoms: CB   and  CG  
REMARK    7  A    between atoms: CG   and  CD  
ROOT
ATOM     14  CA  GLU D 570     -18.033  -6.348 -13.375  1.00 32.92     0.160 C 
ENDROOT
BRANCH  14  15
ATOM     15  CB  GLU D 570     -19.500  -6.345 -13.794  1.00 32.92     0.043 C 
BRANCH  15  16
ATOM     16  CG  GLU D 570     -20.447  -5.555 -12.966  1.00 32.92     0.100 C 
BRANCH  16  17
ATOM     17  CD  GLU D 570     -21.746  -5.257 -13.677  1.00 32.92     0.185 C 
ATOM     18  OE1 GLU D 570     -22.185  -6.079 -14.505  1.00 32.92    -0.647 OA
ATOM     19  OE2 GLU D 570     -22.323  -4.183 -13.416  1.00 32.92    -0.647 OA
ENDBRANCH  16  17
ENDBRANCH  15  16
ENDBRANCH  14  15
END_RES GLU D 570
ENDMDL
MODEL 7
REMARK VINA RESULT:      -5.8      2.051      4.535
REMARK  22 active torsions:
REMARK  status: ('A' for Active; 'I' for Inactive)
REMARK    1  A    between atoms: C_5  and  C_33 
REMARK    2  A    between atoms: C_19  and  O_26 
REMARK    3  A    between atoms: C_20  and  O_25 
REMARK    4  A    between atoms: C_21  and  C_23 
REMARK    5  A    between atoms: C_23  and  O_24 
REMARK    6  A    between atoms: C_33  and  O_35 
REMARK    7  A    between atoms: O_35  and  C_36 
REMARK    8  A    between atoms: C_37  and  O_67 
REMARK    9  A    between atoms: C_38  and  O_66 
REMARK   10  A    between atoms: C_39  and  O_65 
REMARK   11  A    between atoms: C_40  and  C_42 
REMARK   12  A    between atoms: C_42  and  O_43 
REMARK   13  A    between atoms: O_43  and  C_44 
REMARK   14  A    between atoms: C_45  and  O_64 
REMARK   15  A    between atoms: C_46  and  O_63 
REMARK   16  A    between atoms: C_47  and  O_52 
REMARK   17  A    between atoms: C_48  and  C_50 
REMARK   18  A    between atoms: C_50  and  O_51 
REMARK   19  A    between atoms: O_52  and  C_53 
REMARK   20  A    between atoms: C_54  and  O_62 
REMARK   21  A    between atoms: C_55  and  O_61 
REMARK   22  A    between atoms: C_56  and  O_60 
ROOT
HETATM    1  C   UNL     1     -19.150 -10.390  -1.822  1.00  0.00     0.301 C 
HETATM    2  C   UNL     1     -20.055 -11.192  -0.873  1.00  0.00     0.205 C 
HETATM    3  C   UNL     1     -21.514 -11.074  -1.356  1.00  0.00     0.183 C 
HETATM    4  C   UNL     1     -22.017  -9.612  -1.438  1.00  0.00     0.180 C 
HETATM    5  C   UNL     1     -21.005  -8.748  -2.240  1.00  0.00     0.180 C 
HETATM    6  O   UNL     1     -19.620  -8.990  -1.846  1.00  0.00    -0.348 OA
ENDROOT
BRANCH   1   7
HETATM    7  O   UNL     1     -19.099 -11.027  -3.125  1.00  0.00    -0.286 OA
BRANCH   7   8
HETATM    8  C   UNL     1     -18.259 -10.623  -4.181  1.00  0.00     0.270 C 
HETATM    9  O   UNL     1     -18.126  -9.469  -4.550  1.00  0.00    -0.264 OA
BRANCH   8  10
HETATM   10  C   UNL     1     -17.487 -11.921  -4.715  1.00  0.00     0.056 C 
HETATM   11  C   UNL     1     -17.738 -11.810  -6.229  1.00  0.00     0.021 C 
HETATM   12  C   UNL     1     -19.173 -12.237  -6.506  1.00  0.00     0.006 C 
HETATM   13  C   UNL     1     -19.285 -13.757  -6.388  1.00  0.00    -0.014 C 
HETATM   14  C   UNL     1     -20.619 -14.188  -7.017  1.00  0.00     0.010 C 
HETATM   15  C   UNL     1     -18.971 -14.234  -4.913  1.00  0.00    -0.005 C 
HETATM   16  C   UNL     1     -17.623 -13.551  -4.365  1.00  0.00     0.037 C 
HETATM   17  C   UNL     1     -20.217 -14.125  -4.026  1.00  0.00     0.011 C 
HETATM   18  C   UNL     1     -16.778 -14.152  -3.111  1.00  0.00    -0.069 C 
HETATM   19  C   UNL     1     -15.961 -13.112  -2.314  1.00  0.00    -0.013 C 
HETATM   20  C   UNL     1     -16.655 -15.430  -2.585  1.00  0.00    -0.022 C 
HETATM   21  C   UNL     1     -16.079 -11.665  -2.739  1.00  0.00     0.016 C 
HETATM   22  C   UNL     1     -16.434 -13.408  -0.754  1.00  0.00    -0.028 C 
HETATM   23  C   UNL     1     -14.429 -13.413  -2.756  1.00  0.00     0.021 C 
HETATM   24  C   UNL     1     -16.063 -11.587  -4.285  1.00  0.00     0.022 C 
HETATM   25  C   UNL     1     -15.379 -14.494  -0.398  1.00  0.00     0.007 C 
HETATM   26  C   UNL     1     -16.554 -12.365   0.387  1.00  0.00     0.011 C 
HETATM   27  C   UNL     1     -17.995 -13.913  -0.706  1.00  0.00     0.016 C 
HETATM   28  C   UNL     1     -15.932 -15.787  -1.126  1.00  0.00     0.033 C 
HETATM   29  C   UNL     1     -14.371 -14.095   0.816  1.00  0.00    -0.033 C 
HETATM   30  C   UNL     1     -15.167 -13.896   2.113  1.00  0.00     0.007 C 
HETATM   31  C   UNL     1     -13.092 -15.001   0.887  1.00  0.00     0.044 C 
HETATM   32  C   UNL     1     -13.648 -12.672   0.619  1.00  0.00     0.016 C 
HETATM   33  C   UNL     1     -16.436 -13.024   1.818  1.00  0.00     0.007 C 
HETATM   34  C   UNL     1     -15.277 -15.167   3.052  1.00  0.00     0.010 C 
HETATM   35  C   UNL     1     -14.238 -16.271   2.661  1.00  0.00     0.157 C 
HETATM   36  C   UNL     1     -15.048 -14.679   4.513  1.00  0.00     0.020 C 
HETATM   37  C   UNL     1     -12.894 -15.764   2.174  1.00  0.00     0.148 C 
BRANCH  34  38
HETATM   38  C   UNL     1     -16.676 -15.857   3.017  1.00  0.00     0.176 C 
BRANCH  38  39
HETATM   39  O   UNL     1     -16.687 -16.970   2.150  1.00  0.00    -0.400 OA
HETATM   40  H   UNL     1     -17.605 -17.192   1.910  1.00  0.00     0.209 HD
ENDBRANCH  38  39
ENDBRANCH  34  38
BRANCH  35  41
HETATM   41  O   UNL     1     -14.025 -17.183   3.746  1.00  0.00    -0.392 OA
HETATM   42  H   UNL     1     -13.702 -18.012   3.337  1.00  0.00     0.210 HD
ENDBRANCH  35  41
BRANCH  37  43
HETATM   43  O   UNL     1     -12.231 -15.010   3.187  1.00  0.00    -0.393 OA
HETATM   44  H   UNL     1     -11.330 -15.349   3.308  1.00  0.00     0.210 HD
ENDBRANCH  37  43
ENDBRANCH   8  10
ENDBRANCH   7   8
ENDBRANCH   1   7
BRANCH   2  45
HETATM   45  O   UNL     1     -19.956 -10.736   0.483  1.00  0.00    -0.388 OA
HETATM   46  H   UNL     1     -20.772 -10.981   0.959  1.00  0.00     0.210 HD
ENDBRANCH   2  45
BRANCH   3  47
HETATM   47  O   UNL     1     -22.380 -11.922  -0.594  1.00  0.00    -0.390 OA
HETATM   48  H   UNL     1     -23.275 -11.875  -0.988  1.00  0.00     0.210 HD
ENDBRANCH   3  47
BRANCH   5  49
HETATM   49  C   UNL     1     -21.389  -7.200  -2.186  1.00  0.00     0.205 C 
BRANCH  49  50
HETATM   50  O   UNL     1     -20.644  -6.406  -3.119  1.00  0.00    -0.356 OA
BRANCH  50  51
HETATM   51  C   UNL     1     -21.369  -5.581  -4.057  1.00  0.00     0.291 C 
HETATM   52  C   UNL     1     -22.115  -6.539  -4.984  1.00  0.00     0.204 C 
HETATM   53  C   UNL     1     -21.049  -7.392  -5.682  1.00  0.00     0.183 C 
HETATM   54  C   UNL     1     -20.229  -6.556  -6.691  1.00  0.00     0.187 C 
HETATM   55  C   UNL     1     -19.775  -5.227  -5.950  1.00  0.00     0.180 C 
HETATM   56  O   UNL     1     -20.601  -4.695  -4.875  1.00  0.00    -0.348 OA
BRANCH  52  57
HETATM   57  O   UNL     1     -22.969  -5.884  -5.931  1.00  0.00    -0.388 OA
HETATM   58  H   UNL     1     -22.425  -5.450  -6.620  1.00  0.00     0.210 HD
ENDBRANCH  52  57
BRANCH  53  59
HETATM   59  O   UNL     1     -21.646  -8.585  -6.175  1.00  0.00    -0.390 OA
HETATM   60  H   UNL     1     -20.952  -9.276  -6.160  1.00  0.00     0.210 HD
ENDBRANCH  53  59
BRANCH  54  61
HETATM   61  O   UNL     1     -20.880  -6.325  -7.978  1.00  0.00    -0.348 OA
BRANCH  61  62
HETATM   62  C   UNL     1     -21.349  -4.966  -8.197  1.00  0.00     0.292 C 
HETATM   63  C   UNL     1     -22.892  -4.733  -8.207  1.00  0.00     0.204 C 
HETATM   64  C   UNL     1     -23.472  -5.001  -9.618  1.00  0.00     0.183 C 
HETATM   65  C   UNL     1     -22.708  -4.230 -10.702  1.00  0.00     0.178 C 
HETATM   66  C   UNL     1     -21.195  -4.486 -10.587  1.00  0.00     0.152 C 
HETATM   67  O   UNL     1     -20.671  -4.307  -9.275  1.00  0.00    -0.351 OA
HETATM   68  C   UNL     1     -20.420  -3.513 -11.488  1.00  0.00     0.042 C 
BRANCH  63  69
HETATM   69  O   UNL     1     -23.207  -3.399  -7.734  1.00  0.00    -0.388 OA
HETATM   70  H   UNL     1     -22.978  -3.376  -6.785  1.00  0.00     0.210 HD
ENDBRANCH  63  69
BRANCH  64  71
HETATM   71  O   UNL     1     -24.864  -4.668  -9.737  1.00  0.00    -0.390 OA
HETATM   72  H   UNL     1     -25.060  -4.421 -10.659  1.00  0.00     0.210 HD
ENDBRANCH  64  71
BRANCH  65  73
HETATM   73  O   UNL     1     -22.980  -2.823 -10.629  1.00  0.00    -0.390 OA
HETATM   74  H   UNL     1     -23.671  -2.699  -9.949  1.00  0.00     0.210 HD
ENDBRANCH  65  73
ENDBRANCH  61  62
ENDBRANCH  54  61
BRANCH  55  75
HETATM   75  C   UNL     1     -19.572  -4.040  -6.921  1.00  0.00     0.198 C 
BRANCH  75  76
HETATM   76  O   UNL     1     -18.409  -4.270  -7.725  1.00  0.00    -0.398 OA
HETATM   77  H   UNL     1     -18.747  -4.773  -8.494  1.00  0.00     0.209 HD
ENDBRANCH  75  76
ENDBRANCH  55  75
ENDBRANCH  50  51
ENDBRANCH  49  50
ENDBRANCH   5  49
BRANCH   4  78
HETATM   78  O   UNL     1     -22.335  -9.055  -0.155  1.00  0.00    -0.390 OA
HETATM   79  H   UNL     1     -23.113  -9.535   0.187  1.00  0.00     0.210 HD
ENDBRANCH   4  78
TORSDOF 22
BEGIN_RES ARG D 557
REMARK  4 active torsions:
REMARK  status: ('A' for Active; 'I' for Inactive)
REMARK    1  A    between atoms: CA   and  CB  
REMARK    2  A    between atoms: CB   and  CG  
REMARK    3  A    between atoms: CG   and  CD  
REMARK    4  A    between atoms: CD   and  NE  
REMARK       I    between atoms: NE   and  CZ  
REMARK       I    between atoms: CZ   and  NH1 
REMARK       I    between atoms: CZ   and  NH2 
ROOT
ATOM      1  CA  ARG D 557     -26.217   2.705 -17.014  1.00 35.49     0.159 C 
ENDROOT
BRANCH   1   2
ATOM      2  CB  ARG D 557     -26.789   1.319 -17.183  1.00 35.49     0.034 C 
BRANCH   2   3
ATOM      3  CG  ARG D 557     -25.840   0.201 -17.124  1.00 35.49     0.027 C 
BRANCH   3   4
ATOM      4  CD  ARG D 557     -24.752   0.435 -16.146  1.00 35.49     0.116 C 
BRANCH   4   5
ATOM      5  NE  ARG D 557     -24.866  -0.420 -14.994  1.00 35.49    -0.212 N 
ATOM      6  CZ  ARG D 557     -24.046  -1.398 -14.680  1.00 35.49     0.666 C 
ATOM      7  NH1 ARG D 557     -23.004  -1.717 -15.425  1.00 35.49    -0.235 N 
ATOM      8  NH2 ARG D 557     -24.290  -2.057 -13.584  1.00 35.49    -0.235 N 
ATOM      9  HH  ARG D 557     -22.823  -1.295 -16.148  1.00 35.49     0.174 HD
ATOM     10  HH  ARG D 557     -22.502  -2.363 -15.168  1.00 35.49     0.174 HD
ATOM     11  HH  ARG D 557     -24.966  -1.825 -13.119  1.00 35.49     0.174 HD
ATOM     12  HH  ARG D 557     -23.781  -2.693 -13.347  1.00 35.49     0.174 HD
ATOM     13  HE  ARG D 557     -25.550  -0.332 -14.497  1.00 35.49     0.178 HD
ENDBRANCH   4   5
ENDBRANCH   3   4
ENDBRANCH   2   3
ENDBRANCH   1   2
END_RES ARG D 557
BEGIN_RES GLU D 570
REMARK  3 active torsions:
REMARK  status: ('A' for Active; 'I' for Inactive)
REMARK    5  A    between atoms: CA   and  CB  
REMARK    6  A    between atoms: CB   and  CG  
REMARK    7  A    between atoms: CG   and  CD  
ROOT
ATOM     14  CA  GLU D 570     -18.033  -6.348 -13.375  1.00 32.92     0.160 C 
ENDROOT
BRANCH  14  15
ATOM     15  CB  GLU D 570     -19.500  -6.345 -13.794  1.00 32.92     0.043 C 
BRANCH  15  16
ATOM     16  CG  GLU D 570     -19.800  -6.131 -15.233  1.00 32.92     0.100 C 
BRANCH  16  17
ATOM     17  CD  GLU D 570     -21.255  -5.812 -15.491  1.00 32.92     0.185 C 
ATOM     18  OE1 GLU D 570     -22.127  -6.358 -14.789  1.00 32.92    -0.647 OA
ATOM     19  OE2 GLU D 570     -21.525  -5.021 -16.416  1.00 32.92    -0.647 OA
ENDBRANCH  16  17
ENDBRANCH  15  16
ENDBRANCH  14  15
END_RES GLU D 570
ENDMDL
MODEL 8
REMARK VINA RESULT:      -5.8      2.644      8.605
REMARK  22 active torsions:
REMARK  status: ('A' for Active; 'I' for Inactive)
REMARK    1  A    between atoms: C_5  and  C_33 
REMARK    2  A    between atoms: C_19  and  O_26 
REMARK    3  A    between atoms: C_20  and  O_25 
REMARK    4  A    between atoms: C_21  and  C_23 
REMARK    5  A    between atoms: C_23  and  O_24 
REMARK    6  A    between atoms: C_33  and  O_35 
REMARK    7  A    between atoms: O_35  and  C_36 
REMARK    8  A    between atoms: C_37  and  O_67 
REMARK    9  A    between atoms: C_38  and  O_66 
REMARK   10  A    between atoms: C_39  and  O_65 
REMARK   11  A    between atoms: C_40  and  C_42 
REMARK   12  A    between atoms: C_42  and  O_43 
REMARK   13  A    between atoms: O_43  and  C_44 
REMARK   14  A    between atoms: C_45  and  O_64 
REMARK   15  A    between atoms: C_46  and  O_63 
REMARK   16  A    between atoms: C_47  and  O_52 
REMARK   17  A    between atoms: C_48  and  C_50 
REMARK   18  A    between atoms: C_50  and  O_51 
REMARK   19  A    between atoms: O_52  and  C_53 
REMARK   20  A    between atoms: C_54  and  O_62 
REMARK   21  A    between atoms: C_55  and  O_61 
REMARK   22  A    between atoms: C_56  and  O_60 
ROOT
HETATM    1  C   UNL     1     -17.918 -16.005   1.674  1.00  0.00     0.301 C 
HETATM    2  C   UNL     1     -17.106 -15.674   2.937  1.00  0.00     0.205 C 
HETATM    3  C   UNL     1     -16.083 -14.573   2.598  1.00  0.00     0.183 C 
HETATM    4  C   UNL     1     -15.119 -14.962   1.450  1.00  0.00     0.180 C 
HETATM    5  C   UNL     1     -15.930 -15.481   0.230  1.00  0.00     0.180 C 
HETATM    6  O   UNL     1     -16.981 -16.420   0.611  1.00  0.00    -0.348 OA
ENDROOT
BRANCH   1   7
HETATM    7  O   UNL     1     -18.771 -14.887   1.319  1.00  0.00    -0.286 OA
BRANCH   7   8
HETATM    8  C   UNL     1     -19.711 -14.898   0.269  1.00  0.00     0.270 C 
HETATM    9  O   UNL     1     -19.540 -15.460  -0.799  1.00  0.00    -0.264 OA
BRANCH   8  10
HETATM   10  C   UNL     1     -21.022 -14.132   0.779  1.00  0.00     0.056 C 
HETATM   11  C   UNL     1     -21.504 -15.083   1.890  1.00  0.00     0.021 C 
HETATM   12  C   UNL     1     -22.157 -16.291   1.232  1.00  0.00     0.006 C 
HETATM   13  C   UNL     1     -23.528 -15.895   0.686  1.00  0.00    -0.014 C 
HETATM   14  C   UNL     1     -24.303 -17.183   0.364  1.00  0.00     0.010 C 
HETATM   15  C   UNL     1     -23.391 -14.807  -0.453  1.00  0.00    -0.005 C 
HETATM   16  C   UNL     1     -22.412 -13.618   0.006  1.00  0.00     0.037 C 
HETATM   17  C   UNL     1     -23.100 -15.464  -1.807  1.00  0.00     0.011 C 
HETATM   18  C   UNL     1     -22.414 -12.152  -0.702  1.00  0.00    -0.069 C 
HETATM   19  C   UNL     1     -21.071 -11.393  -0.636  1.00  0.00    -0.013 C 
HETATM   20  C   UNL     1     -23.387 -11.439  -1.387  1.00  0.00    -0.022 C 
HETATM   21  C   UNL     1     -19.904 -12.103   0.014  1.00  0.00     0.016 C 
HETATM   22  C   UNL     1     -20.822 -10.974  -2.219  1.00  0.00    -0.028 C 
HETATM   23  C   UNL     1     -21.345 -10.232   0.465  1.00  0.00     0.021 C 
HETATM   24  C   UNL     1     -20.399 -12.836   1.284  1.00  0.00     0.022 C 
HETATM   25  C   UNL     1     -21.578  -9.615  -2.218  1.00  0.00     0.007 C 
HETATM   26  C   UNL     1     -19.451 -10.838  -2.933  1.00  0.00     0.011 C 
HETATM   27  C   UNL     1     -21.440 -12.113  -3.226  1.00  0.00     0.016 C 
HETATM   28  C   UNL     1     -23.100 -10.049  -2.262  1.00  0.00     0.033 C 
HETATM   29  C   UNL     1     -20.653  -8.317  -2.549  1.00  0.00    -0.033 C 
HETATM   30  C   UNL     1     -20.078  -8.433  -3.967  1.00  0.00     0.007 C 
HETATM   31  C   UNL     1     -21.324  -6.956  -2.152  1.00  0.00     0.044 C 
HETATM   32  C   UNL     1     -19.333  -8.211  -1.637  1.00  0.00     0.016 C 
HETATM   33  C   UNL     1     -19.520  -9.882  -4.188  1.00  0.00     0.007 C 
HETATM   34  C   UNL     1     -20.919  -7.723  -5.107  1.00  0.00     0.010 C 
HETATM   35  C   UNL     1     -21.968  -6.722  -4.519  1.00  0.00     0.157 C 
HETATM   36  C   UNL     1     -19.905  -6.987  -6.033  1.00  0.00     0.020 C 
HETATM   37  C   UNL     1     -21.534  -5.970  -3.276  1.00  0.00     0.148 C 
BRANCH  34  38
HETATM   38  C   UNL     1     -21.721  -8.712  -6.008  1.00  0.00     0.176 C 
BRANCH  38  39
HETATM   39  O   UNL     1     -21.204 -10.023  -5.933  1.00  0.00    -0.400 OA
HETATM   40  H   UNL     1     -21.673 -10.523  -5.240  1.00  0.00     0.209 HD
ENDBRANCH  38  39
ENDBRANCH  34  38
BRANCH  35  41
HETATM   41  O   UNL     1     -22.388  -5.776  -5.510  1.00  0.00    -0.392 OA
HETATM   42  H   UNL     1     -21.769  -5.887  -6.262  1.00  0.00     0.210 HD
ENDBRANCH  35  41
BRANCH  37  43
HETATM   43  O   UNL     1     -20.392  -5.157  -3.539  1.00  0.00    -0.393 OA
HETATM   44  H   UNL     1     -20.352  -4.432  -2.894  1.00  0.00     0.210 HD
ENDBRANCH  37  43
ENDBRANCH   8  10
ENDBRANCH   7   8
ENDBRANCH   1   7
BRANCH   2  45
HETATM   45  O   UNL     1     -16.424 -16.823   3.459  1.00  0.00    -0.388 OA
HETATM   46  H   UNL     1     -15.699 -16.524   4.038  1.00  0.00     0.210 HD
ENDBRANCH   2  45
BRANCH   3  47
HETATM   47  O   UNL     1     -15.400 -14.122   3.773  1.00  0.00    -0.390 OA
HETATM   48  H   UNL     1     -15.291 -14.886   4.374  1.00  0.00     0.210 HD
ENDBRANCH   3  47
BRANCH   5  49
HETATM   49  C   UNL     1     -14.970 -16.070  -0.900  1.00  0.00     0.205 C 
BRANCH  49  50
HETATM   50  O   UNL     1     -15.447 -15.814  -2.228  1.00  0.00    -0.356 OA
BRANCH  50  51
HETATM   51  C   UNL     1     -14.489 -15.465  -3.251  1.00  0.00     0.291 C 
HETATM   52  C   UNL     1     -14.593 -13.952  -3.437  1.00  0.00     0.204 C 
HETATM   53  C   UNL     1     -16.031 -13.663  -3.882  1.00  0.00     0.183 C 
HETATM   54  C   UNL     1     -16.290 -14.174  -5.319  1.00  0.00     0.187 C 
HETATM   55  C   UNL     1     -15.755 -15.667  -5.397  1.00  0.00     0.180 C 
HETATM   56  O   UNL     1     -14.655 -16.073  -4.533  1.00  0.00    -0.348 OA
BRANCH  52  57
HETATM   57  O   UNL     1     -13.636 -13.414  -4.361  1.00  0.00    -0.388 OA
HETATM   58  H   UNL     1     -13.966 -12.566  -4.719  1.00  0.00     0.210 HD
ENDBRANCH  52  57
BRANCH  53  59
HETATM   59  O   UNL     1     -16.342 -12.300  -3.622  1.00  0.00    -0.390 OA
HETATM   60  H   UNL     1     -17.276 -12.168  -3.886  1.00  0.00     0.210 HD
ENDBRANCH  53  59
BRANCH  54  61
HETATM   61  O   UNL     1     -15.791 -13.307  -6.383  1.00  0.00    -0.348 OA
BRANCH  61  62
HETATM   62  C   UNL     1     -16.815 -12.717  -7.229  1.00  0.00     0.292 C 
HETATM   63  C   UNL     1     -18.126 -12.231  -6.535  1.00  0.00     0.204 C 
HETATM   64  C   UNL     1     -19.130 -13.402  -6.392  1.00  0.00     0.183 C 
HETATM   65  C   UNL     1     -19.351 -14.126  -7.725  1.00  0.00     0.178 C 
HETATM   66  C   UNL     1     -18.006 -14.528  -8.355  1.00  0.00     0.152 C 
HETATM   67  O   UNL     1     -17.056 -13.470  -8.426  1.00  0.00    -0.351 OA
HETATM   68  C   UNL     1     -18.216 -15.004  -9.800  1.00  0.00     0.042 C 
BRANCH  63  69
HETATM   69  O   UNL     1     -18.697 -11.110  -7.256  1.00  0.00    -0.388 OA
HETATM   70  H   UNL     1     -18.725 -10.360  -6.632  1.00  0.00     0.210 HD
ENDBRANCH  63  69
BRANCH  64  71
HETATM   71  O   UNL     1     -20.413 -12.996  -5.890  1.00  0.00    -0.390 OA
HETATM   72  H   UNL     1     -20.584 -12.072  -6.149  1.00  0.00     0.210 HD
ENDBRANCH  64  71
BRANCH  65  73
HETATM   73  O   UNL     1     -20.106 -13.316  -8.638  1.00  0.00    -0.390 OA
HETATM   74  H   UNL     1     -21.029 -13.637  -8.611  1.00  0.00     0.210 HD
ENDBRANCH  65  73
ENDBRANCH  61  62
ENDBRANCH  54  61
BRANCH  55  75
HETATM   75  C   UNL     1     -15.311 -16.069  -6.823  1.00  0.00     0.198 C 
BRANCH  75  76
HETATM   76  O   UNL     1     -14.069 -16.778  -6.758  1.00  0.00    -0.398 OA
HETATM   77  H   UNL     1     -14.330 -17.720  -6.810  1.00  0.00     0.209 HD
ENDBRANCH  75  76
ENDBRANCH  55  75
ENDBRANCH  50  51
ENDBRANCH  49  50
ENDBRANCH   5  49
BRANCH   4  78
HETATM   78  O   UNL     1     -14.090 -15.871   1.865  1.00  0.00    -0.390 OA
HETATM   79  H   UNL     1     -13.919 -15.705   2.812  1.00  0.00     0.210 HD
ENDBRANCH   4  78
TORSDOF 22
BEGIN_RES ARG D 557
REMARK  4 active torsions:
REMARK  status: ('A' for Active; 'I' for Inactive)
REMARK    1  A    between atoms: CA   and  CB  
REMARK    2  A    between atoms: CB   and  CG  
REMARK    3  A    between atoms: CG   and  CD  
REMARK    4  A    between atoms: CD   and  NE  
REMARK       I    between atoms: NE   and  CZ  
REMARK       I    between atoms: CZ   and  NH1 
REMARK       I    between atoms: CZ   and  NH2 
ROOT
ATOM      1  CA  ARG D 557     -26.217   2.705 -17.014  1.00 35.49     0.159 C 
ENDROOT
BRANCH   1   2
ATOM      2  CB  ARG D 557     -26.789   1.319 -17.183  1.00 35.49     0.034 C 
BRANCH   2   3
ATOM      3  CG  ARG D 557     -28.225   1.161 -16.924  1.00 35.49     0.027 C 
BRANCH   3   4
ATOM      4  CD  ARG D 557     -28.629  -0.261 -16.830  1.00 35.49     0.116 C 
BRANCH   4   5
ATOM      5  NE  ARG D 557     -27.658  -1.054 -16.124  1.00 35.49    -0.212 N 
ATOM      6  CZ  ARG D 557     -27.532  -2.361 -16.199  1.00 35.49     0.666 C 
ATOM      7  NH1 ARG D 557     -28.323  -3.107 -16.948  1.00 35.49    -0.235 N 
ATOM      8  NH2 ARG D 557     -26.580  -2.913 -15.505  1.00 35.49    -0.235 N 
ATOM      9  HH  ARG D 557     -28.955  -2.764 -17.415  1.00 35.49     0.174 HD
ATOM     10  HH  ARG D 557     -28.192  -3.954 -16.959  1.00 35.49     0.174 HD
ATOM     11  HH  ARG D 557     -26.080  -2.405 -15.036  1.00 35.49     0.174 HD
ATOM     12  HH  ARG D 557     -26.466  -3.753 -15.531  1.00 35.49     0.174 HD
ATOM     13  HE  ARG D 557     -27.153  -0.662 -15.563  1.00 35.49     0.178 HD
ENDBRANCH   4   5
ENDBRANCH   3   4
ENDBRANCH   2   3
ENDBRANCH   1   2
END_RES ARG D 557
BEGIN_RES GLU D 570
REMARK  3 active torsions:
REMARK  status: ('A' for Active; 'I' for Inactive)
REMARK    5  A    between atoms: CA   and  CB  
REMARK    6  A    between atoms: CB   and  CG  
REMARK    7  A    between atoms: CG   and  CD  
ROOT
ATOM     14  CA  GLU D 570     -18.033  -6.348 -13.375  1.00 32.92     0.160 C 
ENDROOT
BRANCH  14  15
ATOM     15  CB  GLU D 570     -19.500  -6.345 -13.794  1.00 32.92     0.043 C 
BRANCH  15  16
ATOM     16  CG  GLU D 570     -20.428  -5.470 -13.032  1.00 32.92     0.100 C 
BRANCH  16  17
ATOM     17  CD  GLU D 570     -21.714  -5.188 -13.772  1.00 32.92     0.185 C 
ATOM     18  OE1 GLU D 570     -21.658  -4.788 -14.951  1.00 32.92    -0.647 OA
ATOM     19  OE2 GLU D 570     -22.789  -5.352 -13.162  1.00 32.92    -0.647 OA
ENDBRANCH  16  17
ENDBRANCH  15  16
ENDBRANCH  14  15
END_RES GLU D 570
ENDMDL
MODEL 9
REMARK VINA RESULT:      -5.7      3.294     10.876
REMARK  22 active torsions:
REMARK  status: ('A' for Active; 'I' for Inactive)
REMARK    1  A    between atoms: C_5  and  C_33 
REMARK    2  A    between atoms: C_19  and  O_26 
REMARK    3  A    between atoms: C_20  and  O_25 
REMARK    4  A    between atoms: C_21  and  C_23 
REMARK    5  A    between atoms: C_23  and  O_24 
REMARK    6  A    between atoms: C_33  and  O_35 
REMARK    7  A    between atoms: O_35  and  C_36 
REMARK    8  A    between atoms: C_37  and  O_67 
REMARK    9  A    between atoms: C_38  and  O_66 
REMARK   10  A    between atoms: C_39  and  O_65 
REMARK   11  A    between atoms: C_40  and  C_42 
REMARK   12  A    between atoms: C_42  and  O_43 
REMARK   13  A    between atoms: O_43  and  C_44 
REMARK   14  A    between atoms: C_45  and  O_64 
REMARK   15  A    between atoms: C_46  and  O_63 
REMARK   16  A    between atoms: C_47  and  O_52 
REMARK   17  A    between atoms: C_48  and  C_50 
REMARK   18  A    between atoms: C_50  and  O_51 
REMARK   19  A    between atoms: O_52  and  C_53 
REMARK   20  A    between atoms: C_54  and  O_62 
REMARK   21  A    between atoms: C_55  and  O_61 
REMARK   22  A    between atoms: C_56  and  O_60 
ROOT
HETATM    1  C   UNL     1     -18.158 -10.005  -2.894  1.00  0.00     0.301 C 
HETATM    2  C   UNL     1     -16.716  -9.872  -3.412  1.00  0.00     0.205 C 
HETATM    3  C   UNL     1     -16.048 -11.260  -3.388  1.00  0.00     0.183 C 
HETATM    4  C   UNL     1     -16.035 -11.912  -1.983  1.00  0.00     0.180 C 
HETATM    5  C   UNL     1     -17.462 -11.877  -1.371  1.00  0.00     0.180 C 
HETATM    6  O   UNL     1     -18.115 -10.582  -1.535  1.00  0.00    -0.348 OA
ENDROOT
BRANCH   1   7
HETATM    7  O   UNL     1     -18.964 -10.754  -3.839  1.00  0.00    -0.286 OA
BRANCH   7   8
HETATM    8  C   UNL     1     -19.455 -10.242  -5.056  1.00  0.00     0.270 C 
HETATM    9  O   UNL     1     -18.825 -10.231  -6.100  1.00  0.00    -0.264 OA
BRANCH   8  10
HETATM   10  C   UNL     1     -20.969  -9.778  -4.816  1.00  0.00     0.056 C 
HETATM   11  C   UNL     1     -21.073  -8.598  -5.798  1.00  0.00     0.021 C 
HETATM   12  C   UNL     1     -20.345  -7.407  -5.190  1.00  0.00     0.006 C 
HETATM   13  C   UNL     1     -21.189  -6.815  -4.061  1.00  0.00    -0.014 C 
HETATM   14  C   UNL     1     -20.621  -5.429  -3.718  1.00  0.00     0.010 C 
HETATM   15  C   UNL     1     -21.369  -7.856  -2.884  1.00  0.00    -0.005 C 
HETATM   16  C   UNL     1     -21.808  -9.293  -3.454  1.00  0.00     0.037 C 
HETATM   17  C   UNL     1     -20.167  -7.821  -1.933  1.00  0.00     0.011 C 
HETATM   18  C   UNL     1     -22.513 -10.430  -2.527  1.00  0.00    -0.069 C 
HETATM   19  C   UNL     1     -22.275 -11.886  -2.983  1.00  0.00    -0.013 C 
HETATM   20  C   UNL     1     -23.282 -10.361  -1.374  1.00  0.00    -0.022 C 
HETATM   21  C   UNL     1     -21.380 -12.099  -4.183  1.00  0.00     0.016 C 
HETATM   22  C   UNL     1     -21.739 -12.610  -1.593  1.00  0.00    -0.028 C 
HETATM   23  C   UNL     1     -23.704 -12.325  -3.613  1.00  0.00     0.021 C 
HETATM   24  C   UNL     1     -21.710 -11.035  -5.258  1.00  0.00     0.022 C 
HETATM   25  C   UNL     1     -23.118 -13.030  -1.008  1.00  0.00     0.007 C 
HETATM   26  C   UNL     1     -20.723 -13.778  -1.493  1.00  0.00     0.011 C 
HETATM   27  C   UNL     1     -20.889 -11.549  -0.675  1.00  0.00     0.016 C 
HETATM   28  C   UNL     1     -23.694 -11.673  -0.431  1.00  0.00     0.033 C 
HETATM   29  C   UNL     1     -23.325 -14.635  -0.831  1.00  0.00    -0.033 C 
HETATM   30  C   UNL     1     -22.301 -15.187   0.171  1.00  0.00     0.007 C 
HETATM   31  C   UNL     1     -24.825 -15.052  -0.632  1.00  0.00     0.044 C 
HETATM   32  C   UNL     1     -23.013 -15.482  -2.161  1.00  0.00     0.016 C 
HETATM   33  C   UNL     1     -20.884 -14.602  -0.155  1.00  0.00     0.007 C 
HETATM   34  C   UNL     1     -22.795 -15.282   1.674  1.00  0.00     0.010 C 
HETATM   35  C   UNL     1     -24.351 -15.152   1.784  1.00  0.00     0.157 C 
HETATM   36  C   UNL     1     -22.309 -16.654   2.230  1.00  0.00     0.020 C 
HETATM   37  C   UNL     1     -25.144 -15.777   0.653  1.00  0.00     0.148 C 
BRANCH  34  38
HETATM   38  C   UNL     1     -22.201 -14.179   2.604  1.00  0.00     0.176 C 
BRANCH  38  39
HETATM   39  O   UNL     1     -22.294 -14.538   3.965  1.00  0.00    -0.400 OA
HETATM   40  H   UNL     1     -23.107 -15.052   4.116  1.00  0.00     0.209 HD
ENDBRANCH  38  39
ENDBRANCH  34  38
BRANCH  35  41
HETATM   41  O   UNL     1     -24.823 -15.681   3.030  1.00  0.00    -0.392 OA
HETATM   42  H   UNL     1     -24.846 -14.922   3.649  1.00  0.00     0.210 HD
ENDBRANCH  35  41
BRANCH  37  43
HETATM   43  O   UNL     1     -24.920 -17.183   0.584  1.00  0.00    -0.393 OA
HETATM   44  H   UNL     1     -25.342 -17.541  -0.214  1.00  0.00     0.210 HD
ENDBRANCH  37  43
ENDBRANCH   8  10
ENDBRANCH   7   8
ENDBRANCH   1   7
BRANCH   2  45
HETATM   45  O   UNL     1     -15.943  -8.950  -2.631  1.00  0.00    -0.388 OA
HETATM   46  H   UNL     1     -16.538  -8.479  -2.018  1.00  0.00     0.210 HD
ENDBRANCH   2  45
BRANCH   3  47
HETATM   47  O   UNL     1     -14.753 -11.221  -3.999  1.00  0.00    -0.390 OA
HETATM   48  H   UNL     1     -14.335 -12.097  -3.881  1.00  0.00     0.210 HD
ENDBRANCH   3  47
BRANCH   5  49
HETATM   49  C   UNL     1     -17.456 -12.365   0.149  1.00  0.00     0.205 C 
BRANCH  49  50
HETATM   50  O   UNL     1     -16.249 -13.050   0.511  1.00  0.00    -0.356 OA
BRANCH  50  51
HETATM   51  C   UNL     1     -16.010 -14.364  -0.038  1.00  0.00     0.291 C 
HETATM   52  C   UNL     1     -15.596 -15.250   1.135  1.00  0.00     0.204 C 
HETATM   53  C   UNL     1     -14.318 -14.637   1.719  1.00  0.00     0.183 C 
HETATM   54  C   UNL     1     -13.119 -14.810   0.757  1.00  0.00     0.187 C 
HETATM   55  C   UNL     1     -13.596 -14.348  -0.686  1.00  0.00     0.180 C 
HETATM   56  O   UNL     1     -15.002 -14.476  -1.044  1.00  0.00    -0.348 OA
BRANCH  52  57
HETATM   57  O   UNL     1     -15.407 -16.628   0.783  1.00  0.00    -0.388 OA
HETATM   58  H   UNL     1     -15.999 -17.190   1.322  1.00  0.00     0.210 HD
ENDBRANCH  52  57
BRANCH  53  59
HETATM   59  O   UNL     1     -14.140 -15.094   3.053  1.00  0.00    -0.390 OA
HETATM   60  H   UNL     1     -13.380 -15.712   3.041  1.00  0.00     0.210 HD
ENDBRANCH  53  59
BRANCH  54  61
HETATM   61  O   UNL     1     -12.492 -16.129   0.782  1.00  0.00    -0.348 OA
BRANCH  61  62
HETATM   62  C   UNL     1     -11.068 -16.129   1.073  1.00  0.00     0.292 C 
HETATM   63  C   UNL     1     -10.629 -16.563   2.507  1.00  0.00     0.204 C 
HETATM   64  C   UNL     1     -10.676 -15.356   3.477  1.00  0.00     0.183 C 
HETATM   65  C   UNL     1      -9.911 -14.149   2.919  1.00  0.00     0.178 C 
HETATM   66  C   UNL     1     -10.379 -13.823   1.489  1.00  0.00     0.152 C 
HETATM   67  O   UNL     1     -10.402 -14.945   0.614  1.00  0.00    -0.351 OA
HETATM   68  C   UNL     1      -9.434 -12.800   0.841  1.00  0.00     0.042 C 
BRANCH  63  69
HETATM   69  O   UNL     1      -9.318 -17.182   2.471  1.00  0.00    -0.388 OA
HETATM   70  H   UNL     1      -8.791 -16.684   1.818  1.00  0.00     0.210 HD
ENDBRANCH  63  69
BRANCH  64  71
HETATM   71  O   UNL     1     -10.149 -15.649   4.780  1.00  0.00    -0.390 OA
HETATM   72  H   UNL     1     -10.024 -14.818   5.273  1.00  0.00     0.210 HD
ENDBRANCH  64  71
BRANCH  65  73
HETATM   73  O   UNL     1      -8.495 -14.377   2.938  1.00  0.00    -0.390 OA
HETATM   74  H   UNL     1      -8.247 -14.565   3.865  1.00  0.00     0.210 HD
ENDBRANCH  65  73
ENDBRANCH  61  62
ENDBRANCH  54  61
BRANCH  55  75
HETATM   75  C   UNL     1     -12.828 -15.059  -1.824  1.00  0.00     0.198 C 
BRANCH  75  76
HETATM   76  O   UNL     1     -13.627 -16.124  -2.353  1.00  0.00    -0.398 OA
HETATM   77  H   UNL     1     -14.494 -16.011  -1.914  1.00  0.00     0.209 HD
ENDBRANCH  75  76
ENDBRANCH  55  75
ENDBRANCH  50  51
ENDBRANCH  49  50
ENDBRANCH   5  49
BRANCH   4  78
HETATM   78  O   UNL     1     -15.040 -11.353  -1.115  1.00  0.00    -0.390 OA
HETATM   79  H   UNL     1     -15.054 -11.867  -0.285  1.00  0.00     0.210 HD
ENDBRANCH   4  78
TORSDOF 22
BEGIN_RES ARG D 557
REMARK  4 active torsions:
REMARK  status: ('A' for Active; 'I' for Inactive)
REMARK    1  A    between atoms: CA   and  CB  
REMARK    2  A    between atoms: CB   and  CG  
REMARK    3  A    between atoms: CG   and  CD  
REMARK    4  A    between atoms: CD   and  NE  
REMARK       I    between atoms: NE   and  CZ  
REMARK       I    between atoms: CZ   and  NH1 
REMARK       I    between atoms: CZ   and  NH2 
ROOT
ATOM      1  CA  ARG D 557     -26.217   2.705 -17.014  1.00 35.49     0.159 C 
ENDROOT
BRANCH   1   2
ATOM      2  CB  ARG D 557     -26.789   1.319 -17.183  1.00 35.49     0.034 C 
BRANCH   2   3
ATOM      3  CG  ARG D 557     -28.201   1.139 -16.825  1.00 35.49     0.027 C 
BRANCH   3   4
ATOM      4  CD  ARG D 557     -28.532  -0.273 -16.525  1.00 35.49     0.116 C 
BRANCH   4   5
ATOM      5  NE  ARG D 557     -27.465  -0.944 -15.829  1.00 35.49    -0.212 N 
ATOM      6  CZ  ARG D 557     -27.208  -2.232 -15.876  1.00 35.49     0.666 C 
ATOM      7  NH1 ARG D 557     -27.938  -3.076 -16.582  1.00 35.49    -0.235 N 
ATOM      8  NH2 ARG D 557     -26.186  -2.665 -15.196  1.00 35.49    -0.235 N 
ATOM      9  HH  ARG D 557     -28.613  -2.812 -17.039  1.00 35.49     0.174 HD
ATOM     10  HH  ARG D 557     -27.720  -3.904 -16.577  1.00 35.49     0.174 HD
ATOM     11  HH  ARG D 557     -25.729  -2.096 -14.755  1.00 35.49     0.174 HD
ATOM     12  HH  ARG D 557     -25.986  -3.489 -15.205  1.00 35.49     0.174 HD
ATOM     13  HE  ARG D 557     -26.990  -0.487 -15.292  1.00 35.49     0.178 HD
ENDBRANCH   4   5
ENDBRANCH   3   4
ENDBRANCH   2   3
ENDBRANCH   1   2
END_RES ARG D 557
BEGIN_RES GLU D 570
REMARK  3 active torsions:
REMARK  status: ('A' for Active; 'I' for Inactive)
REMARK    5  A    between atoms: CA   and  CB  
REMARK    6  A    between atoms: CB   and  CG  
REMARK    7  A    between atoms: CG   and  CD  
ROOT
ATOM     14  CA  GLU D 570     -18.033  -6.348 -13.375  1.00 32.92     0.160 C 
ENDROOT
BRANCH  14  15
ATOM     15  CB  GLU D 570     -19.500  -6.345 -13.794  1.00 32.92     0.043 C 
BRANCH  15  16
ATOM     16  CG  GLU D 570     -19.804  -6.060 -15.220  1.00 32.92     0.100 C 
BRANCH  16  17
ATOM     17  CD  GLU D 570     -21.286  -6.024 -15.511  1.00 32.92     0.185 C 
ATOM     18  OE1 GLU D 570     -21.701  -5.326 -16.456  1.00 32.92    -0.647 OA
ATOM     19  OE2 GLU D 570     -22.043  -6.689 -14.775  1.00 32.92    -0.647 OA
ENDBRANCH  16  17
ENDBRANCH  15  16
ENDBRANCH  14  15
END_RES GLU D 570
ENDMDL
