REMARK  19 active torsions:
REMARK  status: ('A' for Active; 'I' for Inactive)
REMARK    1  A    between atoms: C_2  and  C_3 
REMARK    2  A    between atoms: C_3  and  C_4 
REMARK    3  A    between atoms: C_4  and  C_5 
REMARK    4  A    between atoms: C_5  and  C_6 
REMARK    5  A    between atoms: C_6  and  C_7 
REMARK    6  A    between atoms: C_7  and  C_8 
REMARK    7  A    between atoms: C_8  and  C_9 
REMARK    8  A    between atoms: C_10  and  C_11 
REMARK    9  A    between atoms: C_11  and  C_12 
REMARK   10  A    between atoms: C_12  and  C_13 
REMARK   11  A    between atoms: C_13  and  C_14 
REMARK   12  A    between atoms: C_14  and  C_15 
REMARK   13  A    between atoms: C_15  and  C_16 
REMARK   14  A    between atoms: C_16  and  C_17 
REMARK   15  A    between atoms: C_17  and  C_18 
REMARK       I    between atoms: C_18  and  N_20 
REMARK   16  A    between atoms: N_20  and  C_21 
REMARK   17  A    between atoms: C_21  and  C_22 
REMARK   18  A    between atoms: C_25  and  O_26 
REMARK   19  A    between atoms: C_27  and  O_28 
ROOT
HETATM    1  C   UNL     1      16.495   2.105  10.031  1.00  0.00     0.009 C 
ENDROOT
BRANCH   1   2
HETATM    2  C   UNL     1      14.974   2.102  10.016  1.00  0.00     0.000 C 
BRANCH   2   3
HETATM    3  C   UNL     1      14.462   1.825   8.615  1.00  0.00     0.000 C 
BRANCH   3   4
HETATM    4  C   UNL     1      12.938   1.816   8.594  1.00  0.00     0.000 C 
BRANCH   4   5
HETATM    5  C   UNL     1      12.422   1.529   7.191  1.00  0.00     0.004 C 
BRANCH   5   6
HETATM    6  C   UNL     1      12.914   0.171   6.715  1.00  0.00     0.027 C 
BRANCH   6   7
HETATM    7  C   UNL     1      12.422  -0.125   5.335  1.00  0.00    -0.031 C 
HETATM    8  C   UNL     1      11.670  -1.174   5.063  1.00  0.00    -0.031 C 
BRANCH   8   9
HETATM    9  C   UNL     1      11.163  -1.464   3.678  1.00  0.00     0.027 C 
BRANCH   9  10
HETATM   10  C   UNL     1       9.646  -1.464   3.655  1.00  0.00     0.004 C 
BRANCH  10  11
HETATM   11  C   UNL     1       9.142  -1.738   2.249  1.00  0.00     0.000 C 
BRANCH  11  12
HETATM   12  C   UNL     1       7.624  -1.739   2.229  1.00  0.00     0.000 C 
BRANCH  12  13
HETATM   13  C   UNL     1       7.121  -2.011   0.823  1.00  0.00     0.000 C 
BRANCH  13  14
HETATM   14  C   UNL     1       5.603  -2.013   0.804  1.00  0.00    -0.000 C 
BRANCH  14  15
HETATM   15  C   UNL     1       5.095  -2.286  -0.603  1.00  0.00    -0.005 C 
HETATM   16  C   UNL     1       3.581  -2.285  -0.617  1.00  0.00     0.005 C 
ENDBRANCH  14  15
ENDBRANCH  13  14
ENDBRANCH  12  13
ENDBRANCH  11  12
ENDBRANCH  10  11
ENDBRANCH   9  10
ENDBRANCH   8   9
ENDBRANCH   6   7
ENDBRANCH   5   6
ENDBRANCH   4   5
ENDBRANCH   3   4
ENDBRANCH   2   3
ENDBRANCH   1   2
BRANCH   1  17
HETATM   17  C   UNL     1      17.049   2.387  11.432  1.00  0.00     0.103 C 
BRANCH  17  18
HETATM   18  C   UNL     1      18.573   2.382  11.405  1.00  0.00     0.217 C 
HETATM   19  O   UNL     1      19.187   2.190  10.355  1.00  0.00    -0.274 OA
HETATM   20  N   UNL     1      19.219   2.627  12.603  1.00  0.00    -0.357 N 
HETATM   21  H   UNL     1      18.709   2.807  13.460  1.00  0.00     0.162 HD
BRANCH  20  22
HETATM   22  C   UNL     1      20.675   2.625  12.659  1.00  0.00     0.161 C 
BRANCH  22  23
HETATM   23  C   UNL     1      21.240   1.258  12.960  1.00  0.00    -0.038 A 
HETATM   24  C   UNL     1      21.556   0.375  11.917  1.00  0.00     0.012 A 
HETATM   25  C   UNL     1      22.046  -0.902  12.185  1.00  0.00     0.040 A 
HETATM   26  C   UNL     1      22.229  -1.317  13.500  1.00  0.00     0.099 A 
HETATM   27  C   UNL     1      21.929  -0.464  14.568  1.00  0.00     0.101 A 
HETATM   28  C   UNL     1      21.440   0.828  14.286  1.00  0.00     0.048 A 
BRANCH  26  29
HETATM   29  O   UNL     1      22.707  -2.567  13.746  1.00  0.00    -0.358 OA
HETATM   30  H   UNL     1      22.915  -3.068  12.935  1.00  0.00     0.217 HD
ENDBRANCH  26  29
BRANCH  27  31
HETATM   31  O   UNL     1      22.059  -0.773  15.903  1.00  0.00    -0.353 OA
HETATM   32  C   UNL     1      22.540  -2.077  16.230  1.00  0.00     0.210 C 
ENDBRANCH  27  31
ENDBRANCH  22  23
ENDBRANCH  20  22
ENDBRANCH  17  18
ENDBRANCH   1  17
TORSDOF 19
