MODEL 1
REMARK VINA RESULT:      -7.4      0.000      0.000
REMARK  19 active torsions:
REMARK  status: ('A' for Active; 'I' for Inactive)
REMARK    1  A    between atoms: C_2  and  C_3 
REMARK    2  A    between atoms: C_3  and  C_4 
REMARK    3  A    between atoms: C_4  and  C_5 
REMARK    4  A    between atoms: C_5  and  C_6 
REMARK    5  A    between atoms: C_6  and  C_7 
REMARK    6  A    between atoms: C_7  and  C_8 
REMARK    7  A    between atoms: C_8  and  C_9 
REMARK    8  A    between atoms: C_10  and  C_11 
REMARK    9  A    between atoms: C_11  and  C_12 
REMARK   10  A    between atoms: C_12  and  C_13 
REMARK   11  A    between atoms: C_13  and  C_14 
REMARK   12  A    between atoms: C_14  and  C_15 
REMARK   13  A    between atoms: C_15  and  C_16 
REMARK   14  A    between atoms: C_16  and  C_17 
REMARK   15  A    between atoms: C_17  and  C_18 
REMARK       I    between atoms: C_18  and  N_20 
REMARK   16  A    between atoms: N_20  and  C_21 
REMARK   17  A    between atoms: C_21  and  C_22 
REMARK   18  A    between atoms: C_25  and  O_26 
REMARK   19  A    between atoms: C_27  and  O_28 
ROOT
HETATM    1  C   UNL     1     -22.198  -6.836  -4.461  1.00  0.00     0.009 C 
ENDROOT
BRANCH   1   2
HETATM    2  C   UNL     1     -21.530  -7.036  -3.109  1.00  0.00     0.000 C 
BRANCH   2   3
HETATM    3  C   UNL     1     -22.174  -6.143  -2.066  1.00  0.00     0.000 C 
BRANCH   3   4
HETATM    4  C   UNL     1     -22.307  -6.879  -0.738  1.00  0.00     0.000 C 
BRANCH   4   5
HETATM    5  C   UNL     1     -21.278  -7.996  -0.638  1.00  0.00     0.004 C 
BRANCH   5   6
HETATM    6  C   UNL     1     -21.583  -8.890   0.554  1.00  0.00     0.027 C 
BRANCH   6   7
HETATM    7  C   UNL     1     -22.138 -10.205   0.111  1.00  0.00    -0.031 C 
HETATM    8  C   UNL     1     -23.259 -10.303  -0.577  1.00  0.00    -0.031 C 
BRANCH   8   9
HETATM    9  C   UNL     1     -23.809 -11.625  -1.036  1.00  0.00     0.027 C 
BRANCH   9  10
HETATM   10  C   UNL     1     -23.089 -12.098  -2.284  1.00  0.00     0.004 C 
BRANCH  10  11
HETATM   11  C   UNL     1     -23.039 -10.984  -3.315  1.00  0.00     0.000 C 
BRANCH  11  12
HETATM   12  C   UNL     1     -21.611 -10.768  -3.783  1.00  0.00     0.000 C 
BRANCH  12  13
HETATM   13  C   UNL     1     -20.679 -11.735  -3.075  1.00  0.00     0.000 C 
BRANCH  13  14
HETATM   14  C   UNL     1     -19.233 -11.354  -3.341  1.00  0.00    -0.000 C 
BRANCH  14  15
HETATM   15  C   UNL     1     -19.141  -9.890  -3.743  1.00  0.00    -0.005 C 
HETATM   16  C   UNL     1     -18.169  -9.164  -2.837  1.00  0.00     0.005 C 
ENDBRANCH  14  15
ENDBRANCH  13  14
ENDBRANCH  12  13
ENDBRANCH  11  12
ENDBRANCH  10  11
ENDBRANCH   9  10
ENDBRANCH   8   9
ENDBRANCH   6   7
ENDBRANCH   5   6
ENDBRANCH   4   5
ENDBRANCH   3   4
ENDBRANCH   2   3
ENDBRANCH   1   2
BRANCH   1  17
HETATM   17  C   UNL     1     -21.401  -7.497  -5.591  1.00  0.00     0.103 C 
BRANCH  17  18
HETATM   18  C   UNL     1     -20.638  -6.440  -6.383  1.00  0.00     0.217 C 
HETATM   19  O   UNL     1     -19.549  -6.698  -6.896  1.00  0.00    -0.274 OA
HETATM   20  N   UNL     1     -21.240  -5.202  -6.512  1.00  0.00    -0.357 N 
HETATM   21  H   UNL     1     -22.147  -5.002  -6.106  1.00  0.00     0.162 HD
BRANCH  20  22
HETATM   22  C   UNL     1     -20.566  -4.137  -7.243  1.00  0.00     0.161 C 
BRANCH  22  23
HETATM   23  C   UNL     1     -20.951  -4.105  -8.702  1.00  0.00    -0.038 A 
HETATM   24  C   UNL     1     -20.002  -4.398  -9.693  1.00  0.00     0.012 A 
HETATM   25  C   UNL     1     -20.338  -4.337 -11.044  1.00  0.00     0.040 A 
HETATM   26  C   UNL     1     -21.628  -3.983 -11.428  1.00  0.00     0.099 A 
HETATM   27  C   UNL     1     -22.603  -3.687 -10.469  1.00  0.00     0.101 A 
HETATM   28  C   UNL     1     -22.255  -3.758  -9.104  1.00  0.00     0.048 A 
BRANCH  26  29
HETATM   29  O   UNL     1     -21.940  -3.927 -12.751  1.00  0.00    -0.358 OA
HETATM   30  H   UNL     1     -22.772  -4.387 -12.971  1.00  0.00     0.217 HD
ENDBRANCH  26  29
BRANCH  27  31
HETATM   31  O   UNL     1     -23.902  -3.315 -10.733  1.00  0.00    -0.353 OA
HETATM   32  C   UNL     1     -24.833  -3.373  -9.653  1.00  0.00     0.210 C 
ENDBRANCH  27  31
ENDBRANCH  22  23
ENDBRANCH  20  22
ENDBRANCH  17  18
ENDBRANCH   1  17
TORSDOF 19
ENDMDL
MODEL 2
REMARK VINA RESULT:      -7.2      1.467      2.246
REMARK  19 active torsions:
REMARK  status: ('A' for Active; 'I' for Inactive)
REMARK    1  A    between atoms: C_2  and  C_3 
REMARK    2  A    between atoms: C_3  and  C_4 
REMARK    3  A    between atoms: C_4  and  C_5 
REMARK    4  A    between atoms: C_5  and  C_6 
REMARK    5  A    between atoms: C_6  and  C_7 
REMARK    6  A    between atoms: C_7  and  C_8 
REMARK    7  A    between atoms: C_8  and  C_9 
REMARK    8  A    between atoms: C_10  and  C_11 
REMARK    9  A    between atoms: C_11  and  C_12 
REMARK   10  A    between atoms: C_12  and  C_13 
REMARK   11  A    between atoms: C_13  and  C_14 
REMARK   12  A    between atoms: C_14  and  C_15 
REMARK   13  A    between atoms: C_15  and  C_16 
REMARK   14  A    between atoms: C_16  and  C_17 
REMARK   15  A    between atoms: C_17  and  C_18 
REMARK       I    between atoms: C_18  and  N_20 
REMARK   16  A    between atoms: N_20  and  C_21 
REMARK   17  A    between atoms: C_21  and  C_22 
REMARK   18  A    between atoms: C_25  and  O_26 
REMARK   19  A    between atoms: C_27  and  O_28 
ROOT
HETATM    1  C   UNL     1     -22.254  -6.707  -4.143  1.00  0.00     0.009 C 
ENDROOT
BRANCH   1   2
HETATM    2  C   UNL     1     -21.396  -6.555  -2.896  1.00  0.00     0.000 C 
BRANCH   2   3
HETATM    3  C   UNL     1     -22.274  -6.429  -1.665  1.00  0.00     0.000 C 
BRANCH   3   4
HETATM    4  C   UNL     1     -21.823  -7.404  -0.583  1.00  0.00     0.000 C 
BRANCH   4   5
HETATM    5  C   UNL     1     -23.025  -8.030   0.111  1.00  0.00     0.004 C 
BRANCH   5   6
HETATM    6  C   UNL     1     -23.089  -9.520  -0.185  1.00  0.00     0.027 C 
BRANCH   6   7
HETATM    7  C   UNL     1     -21.860  -9.979  -0.900  1.00  0.00    -0.031 C 
HETATM    8  C   UNL     1     -21.838 -10.194  -2.201  1.00  0.00    -0.031 C 
BRANCH   8   9
HETATM    9  C   UNL     1     -20.598 -10.641  -2.923  1.00  0.00     0.027 C 
BRANCH   9  10
HETATM   10  C   UNL     1     -19.419  -9.762  -2.552  1.00  0.00     0.004 C 
BRANCH  10  11
HETATM   11  C   UNL     1     -18.838  -9.111  -3.795  1.00  0.00     0.000 C 
BRANCH  11  12
HETATM   12  C   UNL     1     -18.544 -10.164  -4.848  1.00  0.00     0.000 C 
BRANCH  12  13
HETATM   13  C   UNL     1     -17.662  -9.582  -5.937  1.00  0.00     0.000 C 
BRANCH  13  14
HETATM   14  C   UNL     1     -16.372 -10.376  -6.044  1.00  0.00    -0.000 C 
BRANCH  14  15
HETATM   15  C   UNL     1     -15.552 -10.219  -4.773  1.00  0.00    -0.005 C 
HETATM   16  C   UNL     1     -15.162 -11.579  -4.236  1.00  0.00     0.005 C 
ENDBRANCH  14  15
ENDBRANCH  13  14
ENDBRANCH  12  13
ENDBRANCH  11  12
ENDBRANCH  10  11
ENDBRANCH   9  10
ENDBRANCH   8   9
ENDBRANCH   6   7
ENDBRANCH   5   6
ENDBRANCH   4   5
ENDBRANCH   3   4
ENDBRANCH   2   3
ENDBRANCH   1   2
BRANCH   1  17
HETATM   17  C   UNL     1     -21.503  -7.435  -5.263  1.00  0.00     0.103 C 
BRANCH  17  18
HETATM   18  C   UNL     1     -20.746  -6.433  -6.126  1.00  0.00     0.217 C 
HETATM   19  O   UNL     1     -19.677  -6.735  -6.658  1.00  0.00    -0.274 OA
HETATM   20  N   UNL     1     -21.329  -5.191  -6.297  1.00  0.00    -0.357 N 
HETATM   21  H   UNL     1     -22.220  -4.954  -5.876  1.00  0.00     0.162 HD
BRANCH  20  22
HETATM   22  C   UNL     1     -20.658  -4.175  -7.098  1.00  0.00     0.161 C 
BRANCH  22  23
HETATM   23  C   UNL     1     -21.067  -4.220  -8.550  1.00  0.00    -0.038 A 
HETATM   24  C   UNL     1     -20.096  -4.291  -9.559  1.00  0.00     0.012 A 
HETATM   25  C   UNL     1     -20.461  -4.299 -10.904  1.00  0.00     0.040 A 
HETATM   26  C   UNL     1     -21.804  -4.237 -11.263  1.00  0.00     0.099 A 
HETATM   27  C   UNL     1     -22.803  -4.169 -10.285  1.00  0.00     0.101 A 
HETATM   28  C   UNL     1     -22.423  -4.168  -8.927  1.00  0.00     0.048 A 
BRANCH  26  29
HETATM   29  O   UNL     1     -22.145  -4.244 -12.580  1.00  0.00    -0.358 OA
HETATM   30  H   UNL     1     -21.416  -3.974 -13.170  1.00  0.00     0.217 HD
ENDBRANCH  26  29
BRANCH  27  31
HETATM   31  O   UNL     1     -24.156  -4.092 -10.525  1.00  0.00    -0.353 OA
HETATM   32  C   UNL     1     -24.943  -3.335  -9.604  1.00  0.00     0.210 C 
ENDBRANCH  27  31
ENDBRANCH  22  23
ENDBRANCH  20  22
ENDBRANCH  17  18
ENDBRANCH   1  17
TORSDOF 19
ENDMDL
MODEL 3
REMARK VINA RESULT:      -7.1      1.356      1.762
REMARK  19 active torsions:
REMARK  status: ('A' for Active; 'I' for Inactive)
REMARK    1  A    between atoms: C_2  and  C_3 
REMARK    2  A    between atoms: C_3  and  C_4 
REMARK    3  A    between atoms: C_4  and  C_5 
REMARK    4  A    between atoms: C_5  and  C_6 
REMARK    5  A    between atoms: C_6  and  C_7 
REMARK    6  A    between atoms: C_7  and  C_8 
REMARK    7  A    between atoms: C_8  and  C_9 
REMARK    8  A    between atoms: C_10  and  C_11 
REMARK    9  A    between atoms: C_11  and  C_12 
REMARK   10  A    between atoms: C_12  and  C_13 
REMARK   11  A    between atoms: C_13  and  C_14 
REMARK   12  A    between atoms: C_14  and  C_15 
REMARK   13  A    between atoms: C_15  and  C_16 
REMARK   14  A    between atoms: C_16  and  C_17 
REMARK   15  A    between atoms: C_17  and  C_18 
REMARK       I    between atoms: C_18  and  N_20 
REMARK   16  A    between atoms: N_20  and  C_21 
REMARK   17  A    between atoms: C_21  and  C_22 
REMARK   18  A    between atoms: C_25  and  O_26 
REMARK   19  A    between atoms: C_27  and  O_28 
ROOT
HETATM    1  C   UNL     1     -21.144  -8.071  -4.391  1.00  0.00     0.009 C 
ENDROOT
BRANCH   1   2
HETATM    2  C   UNL     1     -20.921  -7.493  -3.002  1.00  0.00     0.000 C 
BRANCH   2   3
HETATM    3  C   UNL     1     -21.976  -6.447  -2.691  1.00  0.00     0.000 C 
BRANCH   3   4
HETATM    4  C   UNL     1     -22.296  -6.436  -1.201  1.00  0.00     0.000 C 
BRANCH   4   5
HETATM    5  C   UNL     1     -21.814  -7.719  -0.539  1.00  0.00     0.004 C 
BRANCH   5   6
HETATM    6  C   UNL     1     -22.963  -8.400   0.189  1.00  0.00     0.027 C 
BRANCH   6   7
HETATM    7  C   UNL     1     -22.877  -9.886   0.054  1.00  0.00    -0.031 C 
HETATM    8  C   UNL     1     -23.920 -10.627  -0.266  1.00  0.00    -0.031 C 
BRANCH   8   9
HETATM    9  C   UNL     1     -23.832 -12.120  -0.416  1.00  0.00     0.027 C 
BRANCH   9  10
HETATM   10  C   UNL     1     -23.190 -12.742   0.810  1.00  0.00     0.004 C 
BRANCH  10  11
HETATM   11  C   UNL     1     -22.417 -13.991   0.423  1.00  0.00     0.000 C 
BRANCH  11  12
HETATM   12  C   UNL     1     -21.197 -13.616  -0.400  1.00  0.00     0.000 C 
BRANCH  12  13
HETATM   13  C   UNL     1     -20.417 -12.516   0.296  1.00  0.00     0.000 C 
BRANCH  13  14
HETATM   14  C   UNL     1     -19.288 -12.033  -0.597  1.00  0.00    -0.000 C 
BRANCH  14  15
HETATM   15  C   UNL     1     -19.703 -10.768  -1.331  1.00  0.00    -0.005 C 
HETATM   16  C   UNL     1     -19.016 -10.701  -2.679  1.00  0.00     0.005 C 
ENDBRANCH  14  15
ENDBRANCH  13  14
ENDBRANCH  12  13
ENDBRANCH  11  12
ENDBRANCH  10  11
ENDBRANCH   9  10
ENDBRANCH   8   9
ENDBRANCH   6   7
ENDBRANCH   5   6
ENDBRANCH   4   5
ENDBRANCH   3   4
ENDBRANCH   2   3
ENDBRANCH   1   2
BRANCH   1  17
HETATM   17  C   UNL     1     -21.958  -7.122  -5.277  1.00  0.00     0.103 C 
BRANCH  17  18
HETATM   18  C   UNL     1     -21.026  -6.252  -6.112  1.00  0.00     0.217 C 
HETATM   19  O   UNL     1     -19.939  -6.681  -6.501  1.00  0.00    -0.274 OA
HETATM   20  N   UNL     1     -21.472  -4.982  -6.426  1.00  0.00    -0.357 N 
HETATM   21  H   UNL     1     -22.377  -4.641  -6.123  1.00  0.00     0.162 HD
BRANCH  20  22
HETATM   22  C   UNL     1     -20.630  -4.087  -7.210  1.00  0.00     0.161 C 
BRANCH  22  23
HETATM   23  C   UNL     1     -20.996  -4.084  -8.674  1.00  0.00    -0.038 A 
HETATM   24  C   UNL     1     -20.027  -4.367  -9.648  1.00  0.00     0.012 A 
HETATM   25  C   UNL     1     -20.345  -4.334 -11.005  1.00  0.00     0.040 A 
HETATM   26  C   UNL     1     -21.638  -4.018 -11.410  1.00  0.00     0.099 A 
HETATM   27  C   UNL     1     -22.633  -3.734 -10.469  1.00  0.00     0.101 A 
HETATM   28  C   UNL     1     -22.302  -3.776  -9.099  1.00  0.00     0.048 A 
BRANCH  26  29
HETATM   29  O   UNL     1     -21.934  -3.989 -12.738  1.00  0.00    -0.358 OA
HETATM   30  H   UNL     1     -22.137  -3.094 -13.069  1.00  0.00     0.217 HD
ENDBRANCH  26  29
BRANCH  27  31
HETATM   31  O   UNL     1     -23.937  -3.398 -10.756  1.00  0.00    -0.353 OA
HETATM   32  C   UNL     1     -24.840  -3.276  -9.657  1.00  0.00     0.210 C 
ENDBRANCH  27  31
ENDBRANCH  22  23
ENDBRANCH  20  22
ENDBRANCH  17  18
ENDBRANCH   1  17
TORSDOF 19
ENDMDL
MODEL 4
REMARK VINA RESULT:      -7.0      2.277      3.681
REMARK  19 active torsions:
REMARK  status: ('A' for Active; 'I' for Inactive)
REMARK    1  A    between atoms: C_2  and  C_3 
REMARK    2  A    between atoms: C_3  and  C_4 
REMARK    3  A    between atoms: C_4  and  C_5 
REMARK    4  A    between atoms: C_5  and  C_6 
REMARK    5  A    between atoms: C_6  and  C_7 
REMARK    6  A    between atoms: C_7  and  C_8 
REMARK    7  A    between atoms: C_8  and  C_9 
REMARK    8  A    between atoms: C_10  and  C_11 
REMARK    9  A    between atoms: C_11  and  C_12 
REMARK   10  A    between atoms: C_12  and  C_13 
REMARK   11  A    between atoms: C_13  and  C_14 
REMARK   12  A    between atoms: C_14  and  C_15 
REMARK   13  A    between atoms: C_15  and  C_16 
REMARK   14  A    between atoms: C_16  and  C_17 
REMARK   15  A    between atoms: C_17  and  C_18 
REMARK       I    between atoms: C_18  and  N_20 
REMARK   16  A    between atoms: N_20  and  C_21 
REMARK   17  A    between atoms: C_21  and  C_22 
REMARK   18  A    between atoms: C_25  and  O_26 
REMARK   19  A    between atoms: C_27  and  O_28 
ROOT
HETATM    1  C   UNL     1     -21.159  -8.088  -4.361  1.00  0.00     0.009 C 
ENDROOT
BRANCH   1   2
HETATM    2  C   UNL     1     -20.971  -7.606  -2.930  1.00  0.00     0.000 C 
BRANCH   2   3
HETATM    3  C   UNL     1     -21.997  -6.539  -2.596  1.00  0.00     0.000 C 
BRANCH   3   4
HETATM    4  C   UNL     1     -22.305  -6.542  -1.103  1.00  0.00     0.000 C 
BRANCH   4   5
HETATM    5  C   UNL     1     -21.673  -7.750  -0.426  1.00  0.00     0.004 C 
BRANCH   5   6
HETATM    6  C   UNL     1     -22.737  -8.578   0.278  1.00  0.00     0.027 C 
BRANCH   6   7
HETATM    7  C   UNL     1     -22.724  -9.992  -0.205  1.00  0.00    -0.031 C 
HETATM    8  C   UNL     1     -23.828 -10.640  -0.522  1.00  0.00    -0.031 C 
BRANCH   8   9
HETATM    9  C   UNL     1     -23.815 -12.058  -1.022  1.00  0.00     0.027 C 
BRANCH   9  10
HETATM   10  C   UNL     1     -23.669 -13.029   0.135  1.00  0.00     0.004 C 
BRANCH  10  11
HETATM   11  C   UNL     1     -23.023 -14.318  -0.340  1.00  0.00     0.000 C 
BRANCH  11  12
HETATM   12  C   UNL     1     -22.358 -15.030   0.825  1.00  0.00     0.000 C 
BRANCH  12  13
HETATM   13  C   UNL     1     -22.176 -14.070   1.987  1.00  0.00     0.000 C 
BRANCH  13  14
HETATM   14  C   UNL     1     -22.674 -14.706   3.271  1.00  0.00    -0.000 C 
BRANCH  14  15
HETATM   15  C   UNL     1     -24.026 -15.364   3.042  1.00  0.00    -0.005 C 
HETATM   16  C   UNL     1     -24.935 -15.108   4.226  1.00  0.00     0.005 C 
ENDBRANCH  14  15
ENDBRANCH  13  14
ENDBRANCH  12  13
ENDBRANCH  11  12
ENDBRANCH  10  11
ENDBRANCH   9  10
ENDBRANCH   8   9
ENDBRANCH   6   7
ENDBRANCH   5   6
ENDBRANCH   4   5
ENDBRANCH   3   4
ENDBRANCH   2   3
ENDBRANCH   1   2
BRANCH   1  17
HETATM   17  C   UNL     1     -21.947  -7.078  -5.202  1.00  0.00     0.103 C 
BRANCH  17  18
HETATM   18  C   UNL     1     -20.994  -6.243  -6.049  1.00  0.00     0.217 C 
HETATM   19  O   UNL     1     -19.929  -6.711  -6.453  1.00  0.00    -0.274 OA
HETATM   20  N   UNL     1     -21.397  -4.956  -6.357  1.00  0.00    -0.357 N 
HETATM   21  H   UNL     1     -22.285  -4.583  -6.042  1.00  0.00     0.162 HD
BRANCH  20  22
HETATM   22  C   UNL     1     -20.534  -4.093  -7.152  1.00  0.00     0.161 C 
BRANCH  22  23
HETATM   23  C   UNL     1     -20.907  -4.090  -8.614  1.00  0.00    -0.038 A 
HETATM   24  C   UNL     1     -19.985  -4.514  -9.583  1.00  0.00     0.012 A 
HETATM   25  C   UNL     1     -20.307  -4.483 -10.939  1.00  0.00     0.040 A 
HETATM   26  C   UNL     1     -21.556  -4.030 -11.348  1.00  0.00     0.099 A 
HETATM   27  C   UNL     1     -22.505  -3.602 -10.413  1.00  0.00     0.101 A 
HETATM   28  C   UNL     1     -22.171  -3.643  -9.043  1.00  0.00     0.048 A 
BRANCH  26  29
HETATM   29  O   UNL     1     -21.856  -4.005 -12.675  1.00  0.00    -0.358 OA
HETATM   30  H   UNL     1     -22.429  -4.743 -12.957  1.00  0.00     0.217 HD
ENDBRANCH  26  29
BRANCH  27  31
HETATM   31  O   UNL     1     -23.762  -3.125 -10.705  1.00  0.00    -0.353 OA
HETATM   32  C   UNL     1     -24.819  -3.470  -9.809  1.00  0.00     0.210 C 
ENDBRANCH  27  31
ENDBRANCH  22  23
ENDBRANCH  20  22
ENDBRANCH  17  18
ENDBRANCH   1  17
TORSDOF 19
ENDMDL
MODEL 5
REMARK VINA RESULT:      -7.0      1.760      2.565
REMARK  19 active torsions:
REMARK  status: ('A' for Active; 'I' for Inactive)
REMARK    1  A    between atoms: C_2  and  C_3 
REMARK    2  A    between atoms: C_3  and  C_4 
REMARK    3  A    between atoms: C_4  and  C_5 
REMARK    4  A    between atoms: C_5  and  C_6 
REMARK    5  A    between atoms: C_6  and  C_7 
REMARK    6  A    between atoms: C_7  and  C_8 
REMARK    7  A    between atoms: C_8  and  C_9 
REMARK    8  A    between atoms: C_10  and  C_11 
REMARK    9  A    between atoms: C_11  and  C_12 
REMARK   10  A    between atoms: C_12  and  C_13 
REMARK   11  A    between atoms: C_13  and  C_14 
REMARK   12  A    between atoms: C_14  and  C_15 
REMARK   13  A    between atoms: C_15  and  C_16 
REMARK   14  A    between atoms: C_16  and  C_17 
REMARK   15  A    between atoms: C_17  and  C_18 
REMARK       I    between atoms: C_18  and  N_20 
REMARK   16  A    between atoms: N_20  and  C_21 
REMARK   17  A    between atoms: C_21  and  C_22 
REMARK   18  A    between atoms: C_25  and  O_26 
REMARK   19  A    between atoms: C_27  and  O_28 
ROOT
HETATM    1  C   UNL     1     -22.133  -6.577  -4.270  1.00  0.00     0.009 C 
ENDROOT
BRANCH   1   2
HETATM    2  C   UNL     1     -21.245  -6.346  -3.057  1.00  0.00     0.000 C 
BRANCH   2   3
HETATM    3  C   UNL     1     -21.478  -7.429  -2.021  1.00  0.00     0.000 C 
BRANCH   3   4
HETATM    4  C   UNL     1     -22.337  -6.900  -0.878  1.00  0.00     0.000 C 
BRANCH   4   5
HETATM    5  C   UNL     1     -22.380  -7.901   0.268  1.00  0.00     0.004 C 
BRANCH   5   6
HETATM    6  C   UNL     1     -22.535  -9.315  -0.270  1.00  0.00     0.027 C 
BRANCH   6   7
HETATM    7  C   UNL     1     -21.605 -10.258   0.421  1.00  0.00    -0.031 C 
HETATM    8  C   UNL     1     -20.761 -11.028  -0.239  1.00  0.00    -0.031 C 
BRANCH   8   9
HETATM    9  C   UNL     1     -19.815 -11.966   0.456  1.00  0.00     0.027 C 
BRANCH   9  10
HETATM   10  C   UNL     1     -18.578 -12.202  -0.391  1.00  0.00     0.004 C 
BRANCH  10  11
HETATM   11  C   UNL     1     -17.335 -12.197   0.481  1.00  0.00     0.000 C 
BRANCH  11  12
HETATM   12  C   UNL     1     -16.135 -11.729  -0.323  1.00  0.00     0.000 C 
BRANCH  12  13
HETATM   13  C   UNL     1     -16.499 -11.627  -1.793  1.00  0.00     0.000 C 
BRANCH  13  14
HETATM   14  C   UNL     1     -15.466 -10.793  -2.529  1.00  0.00    -0.000 C 
BRANCH  14  15
HETATM   15  C   UNL     1     -16.128  -9.585  -3.172  1.00  0.00    -0.005 C 
HETATM   16  C   UNL     1     -17.586  -9.516  -2.769  1.00  0.00     0.005 C 
ENDBRANCH  14  15
ENDBRANCH  13  14
ENDBRANCH  12  13
ENDBRANCH  11  12
ENDBRANCH  10  11
ENDBRANCH   9  10
ENDBRANCH   8   9
ENDBRANCH   6   7
ENDBRANCH   5   6
ENDBRANCH   4   5
ENDBRANCH   3   4
ENDBRANCH   2   3
ENDBRANCH   1   2
BRANCH   1  17
HETATM   17  C   UNL     1     -21.440  -7.450  -5.323  1.00  0.00     0.103 C 
BRANCH  17  18
HETATM   18  C   UNL     1     -20.662  -6.576  -6.300  1.00  0.00     0.217 C 
HETATM   19  O   UNL     1     -19.621  -6.980  -6.819  1.00  0.00    -0.274 OA
HETATM   20  N   UNL     1     -21.195  -5.333  -6.586  1.00  0.00    -0.357 N 
HETATM   21  H   UNL     1     -22.064  -5.014  -6.174  1.00  0.00     0.162 HD
BRANCH  20  22
HETATM   22  C   UNL     1     -20.500  -4.436  -7.501  1.00  0.00     0.161 C 
BRANCH  22  23
HETATM   23  C   UNL     1     -21.147  -4.386  -8.864  1.00  0.00    -0.038 A 
HETATM   24  C   UNL     1     -20.358  -4.300 -10.021  1.00  0.00     0.012 A 
HETATM   25  C   UNL     1     -20.946  -4.219 -11.282  1.00  0.00     0.040 A 
HETATM   26  C   UNL     1     -22.331  -4.223 -11.408  1.00  0.00     0.099 A 
HETATM   27  C   UNL     1     -23.152  -4.312 -10.278  1.00  0.00     0.101 A 
HETATM   28  C   UNL     1     -22.548  -4.400  -9.007  1.00  0.00     0.048 A 
BRANCH  26  29
HETATM   29  O   UNL     1     -22.890  -4.143 -12.646  1.00  0.00    -0.358 OA
HETATM   30  H   UNL     1     -23.843  -3.932 -12.627  1.00  0.00     0.217 HD
ENDBRANCH  26  29
BRANCH  27  31
HETATM   31  O   UNL     1     -24.528  -4.313 -10.284  1.00  0.00    -0.353 OA
HETATM   32  C   UNL     1     -25.187  -3.163  -9.751  1.00  0.00     0.210 C 
ENDBRANCH  27  31
ENDBRANCH  22  23
ENDBRANCH  20  22
ENDBRANCH  17  18
ENDBRANCH   1  17
TORSDOF 19
ENDMDL
MODEL 6
REMARK VINA RESULT:      -6.8      1.466      3.475
REMARK  19 active torsions:
REMARK  status: ('A' for Active; 'I' for Inactive)
REMARK    1  A    between atoms: C_2  and  C_3 
REMARK    2  A    between atoms: C_3  and  C_4 
REMARK    3  A    between atoms: C_4  and  C_5 
REMARK    4  A    between atoms: C_5  and  C_6 
REMARK    5  A    between atoms: C_6  and  C_7 
REMARK    6  A    between atoms: C_7  and  C_8 
REMARK    7  A    between atoms: C_8  and  C_9 
REMARK    8  A    between atoms: C_10  and  C_11 
REMARK    9  A    between atoms: C_11  and  C_12 
REMARK   10  A    between atoms: C_12  and  C_13 
REMARK   11  A    between atoms: C_13  and  C_14 
REMARK   12  A    between atoms: C_14  and  C_15 
REMARK   13  A    between atoms: C_15  and  C_16 
REMARK   14  A    between atoms: C_16  and  C_17 
REMARK   15  A    between atoms: C_17  and  C_18 
REMARK       I    between atoms: C_18  and  N_20 
REMARK   16  A    between atoms: N_20  and  C_21 
REMARK   17  A    between atoms: C_21  and  C_22 
REMARK   18  A    between atoms: C_25  and  O_26 
REMARK   19  A    between atoms: C_27  and  O_28 
ROOT
HETATM    1  C   UNL     1     -20.606  -8.413  -3.823  1.00  0.00     0.009 C 
ENDROOT
BRANCH   1   2
HETATM    2  C   UNL     1     -19.417  -9.155  -3.231  1.00  0.00     0.000 C 
BRANCH   2   3
HETATM    3  C   UNL     1     -19.726 -10.636  -3.117  1.00  0.00     0.000 C 
BRANCH   3   4
HETATM    4  C   UNL     1     -18.827 -11.291  -2.075  1.00  0.00     0.000 C 
BRANCH   4   5
HETATM    5  C   UNL     1     -19.472 -12.557  -1.528  1.00  0.00     0.004 C 
BRANCH   5   6
HETATM    6  C   UNL     1     -19.597 -12.474  -0.015  1.00  0.00     0.027 C 
BRANCH   6   7
HETATM    7  C   UNL     1     -19.669 -11.052   0.441  1.00  0.00    -0.031 C 
HETATM    8  C   UNL     1     -20.686 -10.584   1.139  1.00  0.00    -0.031 C 
BRANCH   8   9
HETATM    9  C   UNL     1     -20.751  -9.158   1.610  1.00  0.00     0.027 C 
BRANCH   9  10
HETATM   10  C   UNL     1     -21.643  -8.336   0.698  1.00  0.00     0.004 C 
BRANCH  10  11
HETATM   11  C   UNL     1     -22.823  -9.168   0.228  1.00  0.00     0.000 C 
BRANCH  11  12
HETATM   12  C   UNL     1     -22.658  -9.528  -1.238  1.00  0.00     0.000 C 
BRANCH  12  13
HETATM   13  C   UNL     1     -23.222 -10.912  -1.502  1.00  0.00     0.000 C 
BRANCH  13  14
HETATM   14  C   UNL     1     -23.858 -11.465  -0.239  1.00  0.00    -0.000 C 
BRANCH  14  15
HETATM   15  C   UNL     1     -23.511 -12.936  -0.076  1.00  0.00    -0.005 C 
HETATM   16  C   UNL     1     -23.233 -13.245   1.380  1.00  0.00     0.005 C 
ENDBRANCH  14  15
ENDBRANCH  13  14
ENDBRANCH  12  13
ENDBRANCH  11  12
ENDBRANCH  10  11
ENDBRANCH   9  10
ENDBRANCH   8   9
ENDBRANCH   6   7
ENDBRANCH   5   6
ENDBRANCH   4   5
ENDBRANCH   3   4
ENDBRANCH   2   3
ENDBRANCH   1   2
BRANCH   1  17
HETATM   17  C   UNL     1     -20.365  -8.030  -5.288  1.00  0.00     0.103 C 
BRANCH  17  18
HETATM   18  C   UNL     1     -20.783  -6.584  -5.529  1.00  0.00     0.217 C 
HETATM   19  O   UNL     1     -21.269  -5.906  -4.623  1.00  0.00    -0.274 OA
HETATM   20  N   UNL     1     -20.565  -6.075  -6.796  1.00  0.00    -0.357 N 
HETATM   21  H   UNL     1     -20.144  -6.630  -7.531  1.00  0.00     0.162 HD
BRANCH  20  22
HETATM   22  C   UNL     1     -20.951  -4.704  -7.106  1.00  0.00     0.161 C 
BRANCH  22  23
HETATM   23  C   UNL     1     -21.154  -4.482  -8.585  1.00  0.00    -0.038 A 
HETATM   24  C   UNL     1     -20.102  -4.699  -9.487  1.00  0.00     0.012 A 
HETATM   25  C   UNL     1     -20.270  -4.463 -10.850  1.00  0.00     0.040 A 
HETATM   26  C   UNL     1     -21.491  -4.008 -11.335  1.00  0.00     0.099 A 
HETATM   27  C   UNL     1     -22.566  -3.783 -10.467  1.00  0.00     0.101 A 
HETATM   28  C   UNL     1     -22.389  -4.030  -9.091  1.00  0.00     0.048 A 
BRANCH  26  29
HETATM   29  O   UNL     1     -21.639  -3.781 -12.668  1.00  0.00    -0.358 OA
HETATM   30  H   UNL     1     -21.543  -2.842 -12.914  1.00  0.00     0.217 HD
ENDBRANCH  26  29
BRANCH  27  31
HETATM   31  O   UNL     1     -23.811  -3.323 -10.834  1.00  0.00    -0.353 OA
HETATM   32  C   UNL     1     -24.821  -3.291  -9.825  1.00  0.00     0.210 C 
ENDBRANCH  27  31
ENDBRANCH  22  23
ENDBRANCH  20  22
ENDBRANCH  17  18
ENDBRANCH   1  17
TORSDOF 19
ENDMDL
MODEL 7
REMARK VINA RESULT:      -6.5      1.572      3.222
REMARK  19 active torsions:
REMARK  status: ('A' for Active; 'I' for Inactive)
REMARK    1  A    between atoms: C_2  and  C_3 
REMARK    2  A    between atoms: C_3  and  C_4 
REMARK    3  A    between atoms: C_4  and  C_5 
REMARK    4  A    between atoms: C_5  and  C_6 
REMARK    5  A    between atoms: C_6  and  C_7 
REMARK    6  A    between atoms: C_7  and  C_8 
REMARK    7  A    between atoms: C_8  and  C_9 
REMARK    8  A    between atoms: C_10  and  C_11 
REMARK    9  A    between atoms: C_11  and  C_12 
REMARK   10  A    between atoms: C_12  and  C_13 
REMARK   11  A    between atoms: C_13  and  C_14 
REMARK   12  A    between atoms: C_14  and  C_15 
REMARK   13  A    between atoms: C_15  and  C_16 
REMARK   14  A    between atoms: C_16  and  C_17 
REMARK   15  A    between atoms: C_17  and  C_18 
REMARK       I    between atoms: C_18  and  N_20 
REMARK   16  A    between atoms: N_20  and  C_21 
REMARK   17  A    between atoms: C_21  and  C_22 
REMARK   18  A    between atoms: C_25  and  O_26 
REMARK   19  A    between atoms: C_27  and  O_28 
ROOT
HETATM    1  C   UNL     1     -20.050  -8.085  -4.191  1.00  0.00     0.009 C 
ENDROOT
BRANCH   1   2
HETATM    2  C   UNL     1     -19.556  -9.505  -3.960  1.00  0.00     0.000 C 
BRANCH   2   3
HETATM    3  C   UNL     1     -18.835  -9.602  -2.629  1.00  0.00     0.000 C 
BRANCH   3   4
HETATM    4  C   UNL     1     -17.504 -10.326  -2.793  1.00  0.00     0.000 C 
BRANCH   4   5
HETATM    5  C   UNL     1     -17.618 -11.771  -2.327  1.00  0.00     0.004 C 
BRANCH   5   6
HETATM    6  C   UNL     1     -18.018 -11.824  -0.861  1.00  0.00     0.027 C 
BRANCH   6   7
HETATM    7  C   UNL     1     -19.183 -12.738  -0.655  1.00  0.00    -0.031 C 
HETATM    8  C   UNL     1     -20.194 -12.426   0.132  1.00  0.00    -0.031 C 
BRANCH   8   9
HETATM    9  C   UNL     1     -21.373 -13.339   0.329  1.00  0.00     0.027 C 
BRANCH   9  10
HETATM   10  C   UNL     1     -22.582 -12.554   0.799  1.00  0.00     0.004 C 
BRANCH  10  11
HETATM   11  C   UNL     1     -23.757 -12.789  -0.134  1.00  0.00     0.000 C 
BRANCH  11  12
HETATM   12  C   UNL     1     -23.970 -11.576  -1.022  1.00  0.00     0.000 C 
BRANCH  12  13
HETATM   13  C   UNL     1     -23.443 -10.329  -0.336  1.00  0.00     0.000 C 
BRANCH  13  14
HETATM   14  C   UNL     1     -22.345  -9.698  -1.173  1.00  0.00    -0.000 C 
BRANCH  14  15
HETATM   15  C   UNL     1     -21.583  -8.669  -0.353  1.00  0.00    -0.005 C 
HETATM   16  C   UNL     1     -22.505  -7.534   0.041  1.00  0.00     0.005 C 
ENDBRANCH  14  15
ENDBRANCH  13  14
ENDBRANCH  12  13
ENDBRANCH  11  12
ENDBRANCH  10  11
ENDBRANCH   9  10
ENDBRANCH   8   9
ENDBRANCH   6   7
ENDBRANCH   5   6
ENDBRANCH   4   5
ENDBRANCH   3   4
ENDBRANCH   2   3
ENDBRANCH   1   2
BRANCH   1  17
HETATM   17  C   UNL     1     -21.107  -8.023  -5.299  1.00  0.00     0.103 C 
BRANCH  17  18
HETATM   18  C   UNL     1     -21.478  -6.574  -5.591  1.00  0.00     0.217 C 
HETATM   19  O   UNL     1     -22.216  -5.944  -4.833  1.00  0.00    -0.274 OA
HETATM   20  N   UNL     1     -20.927  -6.006  -6.726  1.00  0.00    -0.357 N 
HETATM   21  H   UNL     1     -20.303  -6.523  -7.334  1.00  0.00     0.162 HD
BRANCH  20  22
HETATM   22  C   UNL     1     -21.246  -4.629  -7.079  1.00  0.00     0.161 C 
BRANCH  22  23
HETATM   23  C   UNL     1     -21.379  -4.430  -8.569  1.00  0.00    -0.038 A 
HETATM   24  C   UNL     1     -20.260  -4.561  -9.406  1.00  0.00     0.012 A 
HETATM   25  C   UNL     1     -20.365  -4.347 -10.779  1.00  0.00     0.040 A 
HETATM   26  C   UNL     1     -21.590  -3.998 -11.339  1.00  0.00     0.099 A 
HETATM   27  C   UNL     1     -22.730  -3.861 -10.538  1.00  0.00     0.101 A 
HETATM   28  C   UNL     1     -22.614  -4.087  -9.152  1.00  0.00     0.048 A 
BRANCH  26  29
HETATM   29  O   UNL     1     -21.676  -3.790 -12.681  1.00  0.00    -0.358 OA
HETATM   30  H   UNL     1     -21.555  -2.856 -12.936  1.00  0.00     0.217 HD
ENDBRANCH  26  29
BRANCH  27  31
HETATM   31  O   UNL     1     -23.984  -3.510 -10.982  1.00  0.00    -0.353 OA
HETATM   32  C   UNL     1     -24.999  -3.321  -9.996  1.00  0.00     0.210 C 
ENDBRANCH  27  31
ENDBRANCH  22  23
ENDBRANCH  20  22
ENDBRANCH  17  18
ENDBRANCH   1  17
TORSDOF 19
ENDMDL
MODEL 8
REMARK VINA RESULT:      -6.5      3.068      3.608
REMARK  19 active torsions:
REMARK  status: ('A' for Active; 'I' for Inactive)
REMARK    1  A    between atoms: C_2  and  C_3 
REMARK    2  A    between atoms: C_3  and  C_4 
REMARK    3  A    between atoms: C_4  and  C_5 
REMARK    4  A    between atoms: C_5  and  C_6 
REMARK    5  A    between atoms: C_6  and  C_7 
REMARK    6  A    between atoms: C_7  and  C_8 
REMARK    7  A    between atoms: C_8  and  C_9 
REMARK    8  A    between atoms: C_10  and  C_11 
REMARK    9  A    between atoms: C_11  and  C_12 
REMARK   10  A    between atoms: C_12  and  C_13 
REMARK   11  A    between atoms: C_13  and  C_14 
REMARK   12  A    between atoms: C_14  and  C_15 
REMARK   13  A    between atoms: C_15  and  C_16 
REMARK   14  A    between atoms: C_16  and  C_17 
REMARK   15  A    between atoms: C_17  and  C_18 
REMARK       I    between atoms: C_18  and  N_20 
REMARK   16  A    between atoms: N_20  and  C_21 
REMARK   17  A    between atoms: C_21  and  C_22 
REMARK   18  A    between atoms: C_25  and  O_26 
REMARK   19  A    between atoms: C_27  and  O_28 
ROOT
HETATM    1  C   UNL     1     -22.196  -6.596  -4.353  1.00  0.00     0.009 C 
ENDROOT
BRANCH   1   2
HETATM    2  C   UNL     1     -21.370  -6.439  -3.085  1.00  0.00     0.000 C 
BRANCH   2   3
HETATM    3  C   UNL     1     -21.737  -7.515  -2.081  1.00  0.00     0.000 C 
BRANCH   3   4
HETATM    4  C   UNL     1     -22.288  -6.890  -0.804  1.00  0.00     0.000 C 
BRANCH   4   5
HETATM    5  C   UNL     1     -22.645  -7.967   0.211  1.00  0.00     0.004 C 
BRANCH   5   6
HETATM    6  C   UNL     1     -22.664  -9.334  -0.455  1.00  0.00     0.027 C 
BRANCH   6   7
HETATM    7  C   UNL     1     -21.731 -10.280   0.230  1.00  0.00    -0.031 C 
HETATM    8  C   UNL     1     -20.859 -11.015  -0.431  1.00  0.00    -0.031 C 
BRANCH   8   9
HETATM    9  C   UNL     1     -19.910 -11.955   0.259  1.00  0.00     0.027 C 
BRANCH   9  10
HETATM   10  C   UNL     1     -18.556 -11.942  -0.424  1.00  0.00     0.004 C 
BRANCH  10  11
HETATM   11  C   UNL     1     -17.569 -12.797   0.351  1.00  0.00     0.000 C 
BRANCH  11  12
HETATM   12  C   UNL     1     -16.351 -11.974   0.732  1.00  0.00     0.000 C 
BRANCH  12  13
HETATM   13  C   UNL     1     -15.279 -12.872   1.322  1.00  0.00     0.000 C 
BRANCH  13  14
HETATM   14  C   UNL     1     -14.543 -13.603   0.214  1.00  0.00    -0.000 C 
BRANCH  14  15
HETATM   15  C   UNL     1     -13.643 -14.679   0.801  1.00  0.00    -0.005 C 
HETATM   16  C   UNL     1     -12.247 -14.133   1.008  1.00  0.00     0.005 C 
ENDBRANCH  14  15
ENDBRANCH  13  14
ENDBRANCH  12  13
ENDBRANCH  11  12
ENDBRANCH  10  11
ENDBRANCH   9  10
ENDBRANCH   8   9
ENDBRANCH   6   7
ENDBRANCH   5   6
ENDBRANCH   4   5
ENDBRANCH   3   4
ENDBRANCH   2   3
ENDBRANCH   1   2
BRANCH   1  17
HETATM   17  C   UNL     1     -21.405  -7.295  -5.464  1.00  0.00     0.103 C 
BRANCH  17  18
HETATM   18  C   UNL     1     -20.714  -6.261  -6.346  1.00  0.00     0.217 C 
HETATM   19  O   UNL     1     -19.663  -6.527  -6.929  1.00  0.00    -0.274 OA
HETATM   20  N   UNL     1     -21.339  -5.034  -6.475  1.00  0.00    -0.357 N 
HETATM   21  H   UNL     1     -22.216  -4.828  -6.011  1.00  0.00     0.162 HD
BRANCH  20  22
HETATM   22  C   UNL     1     -20.732  -3.990  -7.291  1.00  0.00     0.161 C 
BRANCH  22  23
HETATM   23  C   UNL     1     -21.164  -4.062  -8.735  1.00  0.00    -0.038 A 
HETATM   24  C   UNL     1     -20.211  -4.209  -9.754  1.00  0.00     0.012 A 
HETATM   25  C   UNL     1     -20.596  -4.242 -11.094  1.00  0.00     0.040 A 
HETATM   26  C   UNL     1     -21.940  -4.129 -11.436  1.00  0.00     0.099 A 
HETATM   27  C   UNL     1     -22.921  -3.984 -10.448  1.00  0.00     0.101 A 
HETATM   28  C   UNL     1     -22.521  -3.959  -9.096  1.00  0.00     0.048 A 
BRANCH  26  29
HETATM   29  O   UNL     1     -22.300  -4.161 -12.748  1.00  0.00    -0.358 OA
HETATM   30  H   UNL     1     -22.476  -3.278 -13.123  1.00  0.00     0.217 HD
ENDBRANCH  26  29
BRANCH  27  31
HETATM   31  O   UNL     1     -24.272  -3.852 -10.673  1.00  0.00    -0.353 OA
HETATM   32  C   UNL     1     -25.048  -3.227  -9.650  1.00  0.00     0.210 C 
ENDBRANCH  27  31
ENDBRANCH  22  23
ENDBRANCH  20  22
ENDBRANCH  17  18
ENDBRANCH   1  17
TORSDOF 19
ENDMDL
MODEL 9
REMARK VINA RESULT:      -6.4      3.150      8.756
REMARK  19 active torsions:
REMARK  status: ('A' for Active; 'I' for Inactive)
REMARK    1  A    between atoms: C_2  and  C_3 
REMARK    2  A    between atoms: C_3  and  C_4 
REMARK    3  A    between atoms: C_4  and  C_5 
REMARK    4  A    between atoms: C_5  and  C_6 
REMARK    5  A    between atoms: C_6  and  C_7 
REMARK    6  A    between atoms: C_7  and  C_8 
REMARK    7  A    between atoms: C_8  and  C_9 
REMARK    8  A    between atoms: C_10  and  C_11 
REMARK    9  A    between atoms: C_11  and  C_12 
REMARK   10  A    between atoms: C_12  and  C_13 
REMARK   11  A    between atoms: C_13  and  C_14 
REMARK   12  A    between atoms: C_14  and  C_15 
REMARK   13  A    between atoms: C_15  and  C_16 
REMARK   14  A    between atoms: C_16  and  C_17 
REMARK   15  A    between atoms: C_17  and  C_18 
REMARK       I    between atoms: C_18  and  N_20 
REMARK   16  A    between atoms: N_20  and  C_21 
REMARK   17  A    between atoms: C_21  and  C_22 
REMARK   18  A    between atoms: C_25  and  O_26 
REMARK   19  A    between atoms: C_27  and  O_28 
ROOT
HETATM    1  C   UNL     1     -22.170  -8.045   0.623  1.00  0.00     0.009 C 
ENDROOT
BRANCH   1   2
HETATM    2  C   UNL     1     -22.207  -8.022  -0.898  1.00  0.00     0.000 C 
BRANCH   2   3
HETATM    3  C   UNL     1     -22.258  -6.592  -1.401  1.00  0.00     0.000 C 
BRANCH   3   4
HETATM    4  C   UNL     1     -21.404  -6.435  -2.654  1.00  0.00     0.000 C 
BRANCH   4   5
HETATM    5  C   UNL     1     -21.533  -7.660  -3.549  1.00  0.00     0.004 C 
BRANCH   5   6
HETATM    6  C   UNL     1     -20.872  -7.404  -4.894  1.00  0.00     0.027 C 
BRANCH   6   7
HETATM    7  C   UNL     1     -20.935  -5.955  -5.256  1.00  0.00    -0.031 C 
HETATM    8  C   UNL     1     -21.285  -5.543  -6.460  1.00  0.00    -0.031 C 
BRANCH   8   9
HETATM    9  C   UNL     1     -21.363  -4.086  -6.820  1.00  0.00     0.027 C 
BRANCH   9  10
HETATM   10  C   UNL     1     -20.385  -3.759  -7.933  1.00  0.00     0.004 C 
BRANCH  10  11
HETATM   11  C   UNL     1     -20.093  -5.001  -8.757  1.00  0.00     0.000 C 
BRANCH  11  12
HETATM   12  C   UNL     1     -20.173  -4.675 -10.238  1.00  0.00     0.000 C 
BRANCH  12  13
HETATM   13  C   UNL     1     -21.283  -3.672 -10.493  1.00  0.00     0.000 C 
BRANCH  13  14
HETATM   14  C   UNL     1     -22.005  -4.011 -11.784  1.00  0.00    -0.000 C 
BRANCH  14  15
HETATM   15  C   UNL     1     -22.765  -2.798 -12.296  1.00  0.00    -0.005 C 
HETATM   16  C   UNL     1     -24.256  -3.050 -12.220  1.00  0.00     0.005 C 
ENDBRANCH  14  15
ENDBRANCH  13  14
ENDBRANCH  12  13
ENDBRANCH  11  12
ENDBRANCH  10  11
ENDBRANCH   9  10
ENDBRANCH   8   9
ENDBRANCH   6   7
ENDBRANCH   5   6
ENDBRANCH   4   5
ENDBRANCH   3   4
ENDBRANCH   2   3
ENDBRANCH   1   2
BRANCH   1  17
HETATM   17  C   UNL     1     -21.063  -8.963   1.151  1.00  0.00     0.103 C 
BRANCH  17  18
HETATM   18  C   UNL     1     -21.066 -10.283   0.387  1.00  0.00     0.217 C 
HETATM   19  O   UNL     1     -21.889 -11.162   0.646  1.00  0.00    -0.274 OA
HETATM   20  N   UNL     1     -20.124 -10.426  -0.615  1.00  0.00    -0.357 N 
HETATM   21  H   UNL     1     -19.464  -9.691  -0.839  1.00  0.00     0.162 HD
BRANCH  20  22
HETATM   22  C   UNL     1     -20.057 -11.664  -1.380  1.00  0.00     0.161 C 
BRANCH  22  23
HETATM   23  C   UNL     1     -20.451 -11.474  -2.824  1.00  0.00    -0.038 A 
HETATM   24  C   UNL     1     -21.738 -11.821  -3.261  1.00  0.00     0.012 A 
HETATM   25  C   UNL     1     -22.101 -11.681  -4.599  1.00  0.00     0.040 A 
HETATM   26  C   UNL     1     -21.184 -11.191  -5.523  1.00  0.00     0.099 A 
HETATM   27  C   UNL     1     -19.892 -10.830  -5.126  1.00  0.00     0.101 A 
HETATM   28  C   UNL     1     -19.536 -10.970  -3.769  1.00  0.00     0.048 A 
BRANCH  26  29
HETATM   29  O   UNL     1     -21.553 -11.061  -6.826  1.00  0.00    -0.358 OA
HETATM   30  H   UNL     1     -21.015 -11.600  -7.436  1.00  0.00     0.217 HD
ENDBRANCH  26  29
BRANCH  27  31
HETATM   31  O   UNL     1     -18.903 -10.349  -5.954  1.00  0.00    -0.353 OA
HETATM   32  C   UNL     1     -17.930 -11.282  -6.424  1.00  0.00     0.210 C 
ENDBRANCH  27  31
ENDBRANCH  22  23
ENDBRANCH  20  22
ENDBRANCH  17  18
ENDBRANCH   1  17
TORSDOF 19
ENDMDL
