REMARK  0 active torsions:
REMARK  status: ('A' for Active; 'I' for Inactive)
ROOT
HETATM    1  C   UNL     1       1.080   0.009  -0.037  1.00  0.00     0.024 C 
HETATM    2  C   UNL     1       2.589   0.045   0.021  1.00  0.00     0.024 C 
HETATM    3  C   UNL     1       3.247   1.246  -0.698  1.00  0.00     0.018 C 
HETATM    4  C   UNL     1       4.685   1.241  -0.132  1.00  0.00     0.007 C 
HETATM    5  C   UNL     1       4.688   0.014   0.815  1.00  0.00     0.001 C 
HETATM    6  C   UNL     1       4.701  -1.251  -0.080  1.00  0.00     0.084 C 
HETATM    7  C   UNL     1       3.284  -1.166  -0.610  1.00  0.00     0.136 C 
HETATM    8  O   UNL     1       2.797  -1.927  -1.430  1.00  0.00    -0.297 OA
HETATM    9  C   UNL     1       3.258   0.041   1.423  1.00  0.00    -0.029 C 
HETATM   10  C   UNL     1       2.915  -1.181   2.299  1.00  0.00     0.016 C 
HETATM   11  C   UNL     1       2.959   1.288   2.277  1.00  0.00     0.016 C 
ENDROOT
TORSDOF 0
