MODEL 1
REMARK VINA RESULT:      -6.3      0.000      0.000
REMARK  0 active torsions:
REMARK  status: ('A' for Active; 'I' for Inactive)
ROOT
HETATM    1  C   UNL     1     -27.666  -6.306 -19.009  1.00  0.00     0.024 C 
HETATM    2  C   UNL     1     -28.566  -5.764 -17.923  1.00  0.00     0.024 C 
HETATM    3  C   UNL     1     -29.398  -4.521 -18.318  1.00  0.00     0.018 C 
HETATM    4  C   UNL     1     -30.475  -4.461 -17.211  1.00  0.00     0.007 C 
HETATM    5  C   UNL     1     -30.107  -5.655 -16.295  1.00  0.00     0.001 C 
HETATM    6  C   UNL     1     -28.832  -5.252 -15.511  1.00  0.00     0.084 C 
HETATM    7  C   UNL     1     -27.838  -5.311 -16.654  1.00  0.00     0.136 C 
HETATM    8  O   UNL     1     -26.658  -5.013 -16.570  1.00  0.00    -0.297 OA
HETATM    9  C   UNL     1     -29.614  -6.729 -17.304  1.00  0.00    -0.029 C 
HETATM   10  C   UNL     1     -29.021  -7.994 -16.651  1.00  0.00     0.016 C 
HETATM   11  C   UNL     1     -30.696  -7.213 -18.288  1.00  0.00     0.016 C 
ENDROOT
TORSDOF 0
ENDMDL
MODEL 2
REMARK VINA RESULT:      -6.2      1.874      2.931
REMARK  0 active torsions:
REMARK  status: ('A' for Active; 'I' for Inactive)
ROOT
HETATM    1  C   UNL     1     -28.359  -3.395 -16.905  1.00  0.00     0.024 C 
HETATM    2  C   UNL     1     -29.182  -4.618 -17.236  1.00  0.00     0.024 C 
HETATM    3  C   UNL     1     -28.905  -5.241 -18.625  1.00  0.00     0.018 C 
HETATM    4  C   UNL     1     -29.548  -6.642 -18.508  1.00  0.00     0.007 C 
HETATM    5  C   UNL     1     -30.149  -6.637 -17.079  1.00  0.00     0.001 C 
HETATM    6  C   UNL     1     -31.399  -5.722 -17.115  1.00  0.00     0.084 C 
HETATM    7  C   UNL     1     -30.696  -4.386 -17.251  1.00  0.00     0.136 C 
HETATM    8  O   UNL     1     -31.258  -3.311 -17.381  1.00  0.00    -0.297 OA
HETATM    9  C   UNL     1     -29.102  -5.827 -16.265  1.00  0.00    -0.029 C 
HETATM   10  C   UNL     1     -29.523  -5.519 -14.814  1.00  0.00     0.016 C 
HETATM   11  C   UNL     1     -27.714  -6.491 -16.185  1.00  0.00     0.016 C 
ENDROOT
TORSDOF 0
ENDMDL
MODEL 3
REMARK VINA RESULT:      -6.2      1.428      2.237
REMARK  0 active torsions:
REMARK  status: ('A' for Active; 'I' for Inactive)
ROOT
HETATM    1  C   UNL     1     -27.174  -6.435 -16.015  1.00  0.00     0.024 C 
HETATM    2  C   UNL     1     -28.336  -5.607 -16.509  1.00  0.00     0.024 C 
HETATM    3  C   UNL     1     -28.026  -4.109 -16.739  1.00  0.00     0.018 C 
HETATM    4  C   UNL     1     -29.218  -3.638 -17.602  1.00  0.00     0.007 C 
HETATM    5  C   UNL     1     -30.087  -4.915 -17.731  1.00  0.00     0.001 C 
HETATM    6  C   UNL     1     -30.767  -5.143 -16.357  1.00  0.00     0.084 C 
HETATM    7  C   UNL     1     -29.547  -5.575 -15.571  1.00  0.00     0.136 C 
HETATM    8  O   UNL     1     -29.536  -5.825 -14.377  1.00  0.00    -0.297 OA
HETATM    9  C   UNL     1     -29.027  -6.048 -17.829  1.00  0.00    -0.029 C 
HETATM   10  C   UNL     1     -29.615  -7.474 -17.805  1.00  0.00     0.016 C 
HETATM   11  C   UNL     1     -28.130  -5.966 -19.078  1.00  0.00     0.016 C 
ENDROOT
TORSDOF 0
ENDMDL
MODEL 4
REMARK VINA RESULT:      -5.7      1.762      3.077
REMARK  0 active torsions:
REMARK  status: ('A' for Active; 'I' for Inactive)
ROOT
HETATM    1  C   UNL     1     -27.620  -6.166 -18.925  1.00  0.00     0.024 C 
HETATM    2  C   UNL     1     -28.575  -6.155 -17.755  1.00  0.00     0.024 C 
HETATM    3  C   UNL     1     -28.009  -6.738 -16.438  1.00  0.00     0.018 C 
HETATM    4  C   UNL     1     -29.009  -6.226 -15.377  1.00  0.00     0.007 C 
HETATM    5  C   UNL     1     -30.048  -5.443 -16.219  1.00  0.00     0.001 C 
HETATM    6  C   UNL     1     -30.905  -6.491 -16.974  1.00  0.00     0.084 C 
HETATM    7  C   UNL     1     -29.862  -6.958 -17.970  1.00  0.00     0.136 C 
HETATM    8  O   UNL     1     -30.024  -7.850 -18.786  1.00  0.00    -0.297 OA
HETATM    9  C   UNL     1     -29.176  -4.788 -17.326  1.00  0.00    -0.029 C 
HETATM   10  C   UNL     1     -29.979  -4.063 -18.425  1.00  0.00     0.016 C 
HETATM   11  C   UNL     1     -28.143  -3.774 -16.798  1.00  0.00     0.016 C 
ENDROOT
TORSDOF 0
ENDMDL
MODEL 5
REMARK VINA RESULT:      -5.7     17.360     18.751
REMARK  0 active torsions:
REMARK  status: ('A' for Active; 'I' for Inactive)
ROOT
HETATM    1  C   UNL     1     -20.135  -8.178  -1.504  1.00  0.00     0.024 C 
HETATM    2  C   UNL     1     -21.422  -8.728  -0.935  1.00  0.00     0.024 C 
HETATM    3  C   UNL     1     -22.197  -9.687  -1.868  1.00  0.00     0.018 C 
HETATM    4  C   UNL     1     -23.187 -10.381  -0.905  1.00  0.00     0.007 C 
HETATM    5  C   UNL     1     -22.884  -9.707   0.458  1.00  0.00     0.001 C 
HETATM    6  C   UNL     1     -23.465  -8.272   0.395  1.00  0.00     0.084 C 
HETATM    7  C   UNL     1     -22.467  -7.668  -0.573  1.00  0.00     0.136 C 
HETATM    8  O   UNL     1     -22.518  -6.530  -1.011  1.00  0.00    -0.297 OA
HETATM    9  C   UNL     1     -21.344  -9.502   0.410  1.00  0.00    -0.029 C 
HETATM   10  C   UNL     1     -20.773  -8.691   1.590  1.00  0.00     0.016 C 
HETATM   11  C   UNL     1     -20.535 -10.812   0.348  1.00  0.00     0.016 C 
ENDROOT
TORSDOF 0
ENDMDL
MODEL 6
REMARK VINA RESULT:      -5.5      1.542      2.573
REMARK  0 active torsions:
REMARK  status: ('A' for Active; 'I' for Inactive)
ROOT
HETATM    1  C   UNL     1     -30.627  -7.143 -17.522  1.00  0.00     0.024 C 
HETATM    2  C   UNL     1     -29.489  -6.153 -17.446  1.00  0.00     0.024 C 
HETATM    3  C   UNL     1     -29.863  -4.692 -17.787  1.00  0.00     0.018 C 
HETATM    4  C   UNL     1     -28.662  -3.891 -17.236  1.00  0.00     0.007 C 
HETATM    5  C   UNL     1     -27.726  -4.994 -16.680  1.00  0.00     0.001 C 
HETATM    6  C   UNL     1     -27.091  -5.709 -17.900  1.00  0.00     0.084 C 
HETATM    7  C   UNL     1     -28.320  -6.446 -18.393  1.00  0.00     0.136 C 
HETATM    8  O   UNL     1     -28.366  -7.134 -19.400  1.00  0.00    -0.297 OA
HETATM    9  C   UNL     1     -28.723  -6.035 -16.100  1.00  0.00    -0.029 C 
HETATM   10  C   UNL     1     -28.067  -7.343 -15.613  1.00  0.00     0.016 C 
HETATM   11  C   UNL     1     -29.572  -5.509 -14.926  1.00  0.00     0.016 C 
ENDROOT
TORSDOF 0
ENDMDL
MODEL 7
REMARK VINA RESULT:      -5.3     17.552     19.080
REMARK  0 active torsions:
REMARK  status: ('A' for Active; 'I' for Inactive)
ROOT
HETATM    1  C   UNL     1     -19.874 -11.084  -0.307  1.00  0.00     0.024 C 
HETATM    2  C   UNL     1     -21.044 -10.163  -0.052  1.00  0.00     0.024 C 
HETATM    3  C   UNL     1     -20.903  -9.248   1.188  1.00  0.00     0.018 C 
HETATM    4  C   UNL     1     -21.998  -8.182   0.955  1.00  0.00     0.007 C 
HETATM    5  C   UNL     1     -22.659  -8.637  -0.371  1.00  0.00     0.001 C 
HETATM    6  C   UNL     1     -23.509  -9.892  -0.048  1.00  0.00     0.084 C 
HETATM    7  C   UNL     1     -22.380 -10.874   0.187  1.00  0.00     0.136 C 
HETATM    8  O   UNL     1     -22.523 -12.034   0.539  1.00  0.00    -0.297 OA
HETATM    9  C   UNL     1     -21.456  -9.187  -1.188  1.00  0.00    -0.029 C 
HETATM   10  C   UNL     1     -21.846  -9.868  -2.515  1.00  0.00     0.016 C 
HETATM   11  C   UNL     1     -20.394  -8.127  -1.536  1.00  0.00     0.016 C 
ENDROOT
TORSDOF 0
ENDMDL
MODEL 8
REMARK VINA RESULT:      -5.2     17.419     18.906
REMARK  0 active torsions:
REMARK  status: ('A' for Active; 'I' for Inactive)
ROOT
HETATM    1  C   UNL     1     -22.217  -7.563  -0.737  1.00  0.00     0.024 C 
HETATM    2  C   UNL     1     -22.093  -9.026  -0.385  1.00  0.00     0.024 C 
HETATM    3  C   UNL     1     -23.424  -9.739  -0.053  1.00  0.00     0.018 C 
HETATM    4  C   UNL     1     -23.048 -11.235  -0.149  1.00  0.00     0.007 C 
HETATM    5  C   UNL     1     -21.536 -11.198  -0.489  1.00  0.00     0.001 C 
HETATM    6  C   UNL     1     -20.791 -10.772   0.801  1.00  0.00     0.084 C 
HETATM    7  C   UNL     1     -21.221  -9.320   0.840  1.00  0.00     0.136 C 
HETATM    8  O   UNL     1     -20.939  -8.530   1.726  1.00  0.00    -0.297 OA
HETATM    9  C   UNL     1     -21.420  -9.964  -1.426  1.00  0.00    -0.029 C 
HETATM   10  C   UNL     1     -19.974  -9.582  -1.801  1.00  0.00     0.016 C 
HETATM   11  C   UNL     1     -22.192 -10.104  -2.752  1.00  0.00     0.016 C 
ENDROOT
TORSDOF 0
ENDMDL
MODEL 9
REMARK VINA RESULT:      -5.2     17.303     18.787
REMARK  0 active torsions:
REMARK  status: ('A' for Active; 'I' for Inactive)
ROOT
HETATM    1  C   UNL     1     -20.356  -8.262  -1.667  1.00  0.00     0.024 C 
HETATM    2  C   UNL     1     -21.135  -9.379  -1.013  1.00  0.00     0.024 C 
HETATM    3  C   UNL     1     -20.289 -10.588  -0.549  1.00  0.00     0.018 C 
HETATM    4  C   UNL     1     -21.246 -11.331   0.410  1.00  0.00     0.007 C 
HETATM    5  C   UNL     1     -22.539 -10.478   0.351  1.00  0.00     0.001 C 
HETATM    6  C   UNL     1     -23.201 -10.751  -1.023  1.00  0.00     0.084 C 
HETATM    7  C   UNL     1     -22.206 -10.020  -1.901  1.00  0.00     0.136 C 
HETATM    8  O   UNL     1     -22.245  -9.981  -3.120  1.00  0.00    -0.297 OA
HETATM    9  C   UNL     1     -21.992  -9.027   0.234  1.00  0.00    -0.029 C 
HETATM   10  C   UNL     1     -23.075  -7.956  -0.008  1.00  0.00     0.016 C 
HETATM   11  C   UNL     1     -21.180  -8.559   1.456  1.00  0.00     0.016 C 
ENDROOT
TORSDOF 0
ENDMDL
