MODEL 1
REMARK VINA RESULT:      -9.5      0.000      0.000
REMARK  6 active torsions:
REMARK  status: ('A' for Active; 'I' for Inactive)
REMARK       I    between atoms: C_2  and  N_4 
REMARK    1  A    between atoms: N_4  and  C_5 
REMARK    2  A    between atoms: C_9  and  O_10 
REMARK    3  A    between atoms: O_10  and  C_11 
REMARK    4  A    between atoms: C_13  and  N_14 
REMARK    5  A    between atoms: N_17  and  C_18 
REMARK    6  A    between atoms: C_18  and  C_20 
ROOT
HETATM    1  C   UNL     1     -21.358  -8.316  -1.667  1.00  0.00     0.152 A 
HETATM    2  C   UNL     1     -21.118  -7.976  -2.971  1.00  0.00     0.104 A 
HETATM    3  C   UNL     1     -21.493  -6.711  -3.376  1.00  0.00     0.108 A 
HETATM    4  N   UNL     1     -22.101  -5.873  -2.517  1.00  0.00    -0.339 N 
ATOM      5  HN  UNL     1     -22.387  -4.938  -2.804  1.00  0.00     0.168 HD
HETATM    6  C   UNL     1     -22.317  -6.314  -1.267  1.00  0.00     0.183 A 
HETATM    7  N   UNL     1     -21.979  -7.515  -0.782  1.00  0.00    -0.333 N 
ATOM      8  HN  UNL     1     -22.174  -7.799   0.179  1.00  0.00     0.168 HD
ENDROOT
BRANCH   1   9
HETATM    9  O   UNL     1     -20.941  -9.580  -1.274  1.00  0.00    -0.291 OA
BRANCH   9  10
HETATM   10  C   UNL     1     -21.880 -10.593  -1.235  1.00  0.00     0.105 A 
HETATM   11  C   UNL     1     -21.842 -11.584  -2.248  1.00  0.00     0.085 A 
HETATM   12  N   UNL     1     -20.953 -11.666  -3.324  1.00  0.00    -0.333 N 
HETATM   13  C   UNL     1     -22.795 -12.605  -2.207  1.00  0.00     0.038 A 
HETATM   14  C   UNL     1     -21.308 -12.650  -4.114  1.00  0.00     0.152 A 
ATOM     15  HN  UNL     1     -20.150 -11.054  -3.470  1.00  0.00     0.168 HD
HETATM   16  S   UNL     1     -22.568 -13.645  -3.551  1.00  0.00    -0.052 SA
HETATM   17  C   UNL     1     -23.766 -12.696  -1.198  1.00  0.00     0.021 A 
HETATM   18  C   UNL     1     -23.765 -11.733  -0.193  1.00  0.00     0.004 A 
HETATM   19  C   UNL     1     -22.823 -10.712  -0.196  1.00  0.00     0.040 A 
BRANCH  14  20
HETATM   20  N   UNL     1     -20.661 -12.907  -5.299  1.00  0.00    -0.307 N 
HETATM   21  C   UNL     1     -20.561 -12.025  -6.354  1.00  0.00     0.219 C 
HETATM   22  C   UNL     1     -19.801 -12.604  -7.518  1.00  0.00     0.117 C 
HETATM   23  O   UNL     1     -21.001 -10.882  -6.414  1.00  0.00    -0.274 OA
HETATM   24  H   UNL     1     -20.059 -13.719  -5.266  1.00  0.00     0.171 HD
ENDBRANCH  14  20
ENDBRANCH   9  10
ENDBRANCH   1   9
BRANCH   3  25
HETATM   25  N   UNL     1     -21.313  -6.315  -4.684  1.00  0.00    -0.364 N 
HETATM   26  C   UNL     1     -22.483  -6.077  -5.538  1.00  0.00     0.154 C 
HETATM   27  C   UNL     1     -22.120  -6.476  -6.993  1.00  0.00     0.293 C 
HETATM   28  N   UNL     1     -20.895  -5.825  -7.551  1.00  0.00     0.100 N 
HETATM   29  C   UNL     1     -19.791  -6.105  -6.589  1.00  0.00     0.293 C 
HETATM   30  C   UNL     1     -20.079  -5.667  -5.133  1.00  0.00     0.154 C 
BRANCH  28  31
HETATM   31  C   UNL     1     -21.078  -4.371  -7.790  1.00  0.00     0.252 C 
HETATM   32  C   UNL     1     -19.749  -3.682  -8.159  1.00  0.00     0.048 C 
BRANCH  31  33
HETATM   33  C   UNL     1     -22.098  -4.064  -8.886  1.00  0.00    -0.025 A 
HETATM   34  C   UNL     1     -21.690  -4.072 -10.234  1.00  0.00     0.012 A 
HETATM   35  C   UNL     1     -22.604  -3.807 -11.255  1.00  0.00     0.043 A 
HETATM   36  C   UNL     1     -23.927  -3.536 -10.935  1.00  0.00     0.116 A 
HETATM   37  F   UNL     1     -24.803  -3.287 -11.918  1.00  0.00    -0.206 F 
HETATM   38  C   UNL     1     -24.354  -3.516  -9.613  1.00  0.00     0.043 A 
HETATM   39  C   UNL     1     -23.441  -3.773  -8.589  1.00  0.00     0.012 A 
ENDBRANCH  31  33
ENDBRANCH  28  31
ENDBRANCH   3  25
TORSDOF 6
ENDMDL
MODEL 2
REMARK VINA RESULT:      -8.7      1.755      2.073
REMARK  6 active torsions:
REMARK  status: ('A' for Active; 'I' for Inactive)
REMARK       I    between atoms: C_2  and  N_4 
REMARK    1  A    between atoms: N_4  and  C_5 
REMARK    2  A    between atoms: C_9  and  O_10 
REMARK    3  A    between atoms: O_10  and  C_11 
REMARK    4  A    between atoms: C_13  and  N_14 
REMARK    5  A    between atoms: N_17  and  C_18 
REMARK    6  A    between atoms: C_18  and  C_20 
ROOT
HETATM    1  C   UNL     1     -21.119  -8.346  -1.607  1.00  0.00     0.152 A 
HETATM    2  C   UNL     1     -20.915  -7.925  -2.893  1.00  0.00     0.104 A 
HETATM    3  C   UNL     1     -21.435  -6.696  -3.249  1.00  0.00     0.108 A 
HETATM    4  N   UNL     1     -22.142  -5.974  -2.362  1.00  0.00    -0.339 N 
ATOM      5  HN  UNL     1     -22.536  -5.068  -2.612  1.00  0.00     0.168 HD
HETATM    6  C   UNL     1     -22.311  -6.490  -1.134  1.00  0.00     0.183 A 
HETATM    7  N   UNL     1     -21.835  -7.662  -0.696  1.00  0.00    -0.333 N 
ATOM      8  HN  UNL     1     -22.001  -8.008   0.250  1.00  0.00     0.168 HD
ENDROOT
BRANCH   1   9
HETATM    9  O   UNL     1     -20.557  -9.567  -1.263  1.00  0.00    -0.291 OA
BRANCH   9  10
HETATM   10  C   UNL     1     -21.112 -10.714  -1.798  1.00  0.00     0.105 A 
HETATM   11  C   UNL     1     -20.341 -11.469  -2.718  1.00  0.00     0.085 A 
HETATM   12  N   UNL     1     -19.050 -11.188  -3.176  1.00  0.00    -0.333 N 
HETATM   13  C   UNL     1     -20.907 -12.626  -3.259  1.00  0.00     0.038 A 
HETATM   14  C   UNL     1     -18.719 -12.046  -4.110  1.00  0.00     0.152 A 
ATOM     15  HN  UNL     1     -18.458 -10.431  -2.835  1.00  0.00     0.168 HD
HETATM   16  S   UNL     1     -19.804 -13.331  -4.365  1.00  0.00    -0.052 SA
HETATM   17  C   UNL     1     -22.191 -13.075  -2.913  1.00  0.00     0.021 A 
HETATM   18  C   UNL     1     -22.919 -12.339  -1.982  1.00  0.00     0.004 A 
HETATM   19  C   UNL     1     -22.380 -11.192  -1.415  1.00  0.00     0.040 A 
BRANCH  14  20
HETATM   20  N   UNL     1     -17.534 -11.954  -4.801  1.00  0.00    -0.307 N 
HETATM   21  C   UNL     1     -17.046 -10.805  -5.387  1.00  0.00     0.219 C 
HETATM   22  C   UNL     1     -15.729 -11.028  -6.083  1.00  0.00     0.117 C 
HETATM   23  O   UNL     1     -17.557  -9.690  -5.379  1.00  0.00    -0.274 OA
HETATM   24  H   UNL     1     -16.921 -12.745  -4.662  1.00  0.00     0.171 HD
ENDBRANCH  14  20
ENDBRANCH   9  10
ENDBRANCH   1   9
BRANCH   3  25
HETATM   25  N   UNL     1     -21.297  -6.226  -4.537  1.00  0.00    -0.364 N 
HETATM   26  C   UNL     1     -22.256  -6.641  -5.568  1.00  0.00     0.154 C 
HETATM   27  C   UNL     1     -21.511  -6.731  -6.926  1.00  0.00     0.293 C 
HETATM   28  N   UNL     1     -20.768  -5.499  -7.335  1.00  0.00     0.100 N 
HETATM   29  C   UNL     1     -19.857  -5.159  -6.204  1.00  0.00     0.293 C 
HETATM   30  C   UNL     1     -20.562  -4.995  -4.837  1.00  0.00     0.154 C 
BRANCH  28  31
HETATM   31  C   UNL     1     -21.673  -4.376  -7.686  1.00  0.00     0.252 C 
HETATM   32  C   UNL     1     -21.237  -3.060  -7.013  1.00  0.00     0.048 C 
BRANCH  31  33
HETATM   33  C   UNL     1     -21.776  -4.133  -9.192  1.00  0.00    -0.025 A 
HETATM   34  C   UNL     1     -23.025  -3.815  -9.758  1.00  0.00     0.012 A 
HETATM   35  C   UNL     1     -23.145  -3.576 -11.128  1.00  0.00     0.043 A 
HETATM   36  C   UNL     1     -22.018  -3.650 -11.936  1.00  0.00     0.116 A 
HETATM   37  F   UNL     1     -22.135  -3.415 -13.250  1.00  0.00    -0.206 F 
HETATM   38  C   UNL     1     -20.775  -3.967 -11.403  1.00  0.00     0.043 A 
HETATM   39  C   UNL     1     -20.653  -4.214 -10.035  1.00  0.00     0.012 A 
ENDBRANCH  31  33
ENDBRANCH  28  31
ENDBRANCH   3  25
TORSDOF 6
ENDMDL
MODEL 3
REMARK VINA RESULT:      -8.7      2.409      2.927
REMARK  6 active torsions:
REMARK  status: ('A' for Active; 'I' for Inactive)
REMARK       I    between atoms: C_2  and  N_4 
REMARK    1  A    between atoms: N_4  and  C_5 
REMARK    2  A    between atoms: C_9  and  O_10 
REMARK    3  A    between atoms: O_10  and  C_11 
REMARK    4  A    between atoms: C_13  and  N_14 
REMARK    5  A    between atoms: N_17  and  C_18 
REMARK    6  A    between atoms: C_18  and  C_20 
ROOT
HETATM    1  C   UNL     1     -21.268  -8.341  -1.390  1.00  0.00     0.152 A 
HETATM    2  C   UNL     1     -21.093  -7.948  -2.689  1.00  0.00     0.104 A 
HETATM    3  C   UNL     1     -21.546  -6.691  -3.038  1.00  0.00     0.108 A 
HETATM    4  N   UNL     1     -22.164  -5.914  -2.131  1.00  0.00    -0.339 N 
ATOM      5  HN  UNL     1     -22.508  -4.986  -2.376  1.00  0.00     0.168 HD
HETATM    6  C   UNL     1     -22.312  -6.404  -0.890  1.00  0.00     0.183 A 
HETATM    7  N   UNL     1     -21.896  -7.601  -0.457  1.00  0.00    -0.333 N 
ATOM      8  HN  UNL     1     -22.042  -7.925   0.499  1.00  0.00     0.168 HD
ENDROOT
BRANCH   1   9
HETATM    9  O   UNL     1     -20.774  -9.593  -1.054  1.00  0.00    -0.291 OA
BRANCH   9  10
HETATM   10  C   UNL     1     -21.668 -10.552  -0.619  1.00  0.00     0.105 A 
HETATM   11  C   UNL     1     -21.156 -11.794  -0.168  1.00  0.00     0.085 A 
HETATM   12  N   UNL     1     -19.816 -12.191  -0.112  1.00  0.00    -0.333 N 
HETATM   13  C   UNL     1     -22.063 -12.763   0.268  1.00  0.00     0.038 A 
HETATM   14  C   UNL     1     -19.745 -13.450   0.245  1.00  0.00     0.152 A 
ATOM     15  HN  UNL     1     -19.017 -11.591  -0.317  1.00  0.00     0.168 HD
HETATM   16  S   UNL     1     -21.207 -14.178   0.719  1.00  0.00    -0.052 SA
HETATM   17  C   UNL     1     -23.450 -12.546   0.293  1.00  0.00     0.021 A 
HETATM   18  C   UNL     1     -23.931 -11.307  -0.121  1.00  0.00     0.004 A 
HETATM   19  C   UNL     1     -23.055 -10.318  -0.547  1.00  0.00     0.040 A 
BRANCH  14  20
HETATM   20  N   UNL     1     -18.551 -14.130   0.297  1.00  0.00    -0.307 N 
HETATM   21  C   UNL     1     -17.508 -13.968  -0.590  1.00  0.00     0.219 C 
HETATM   22  C   UNL     1     -16.339 -14.864  -0.276  1.00  0.00     0.117 C 
HETATM   23  O   UNL     1     -17.453 -13.197  -1.543  1.00  0.00    -0.274 OA
HETATM   24  H   UNL     1     -18.393 -14.606   1.174  1.00  0.00     0.171 HD
ENDBRANCH  14  20
ENDBRANCH   9  10
ENDBRANCH   1   9
BRANCH   3  25
HETATM   25  N   UNL     1     -21.434  -6.245  -4.338  1.00  0.00    -0.364 N 
HETATM   26  C   UNL     1     -22.479  -6.581  -5.313  1.00  0.00     0.154 C 
HETATM   27  C   UNL     1     -21.816  -6.747  -6.706  1.00  0.00     0.293 C 
HETATM   28  N   UNL     1     -20.989  -5.589  -7.167  1.00  0.00     0.100 N 
HETATM   29  C   UNL     1     -19.995  -5.323  -6.089  1.00  0.00     0.293 C 
HETATM   30  C   UNL     1     -20.610  -5.086  -4.689  1.00  0.00     0.154 C 
BRANCH  28  31
HETATM   31  C   UNL     1     -21.808  -4.392  -7.485  1.00  0.00     0.252 C 
HETATM   32  C   UNL     1     -21.031  -3.086  -7.233  1.00  0.00     0.048 C 
BRANCH  31  33
HETATM   33  C   UNL     1     -22.318  -4.376  -8.926  1.00  0.00    -0.025 A 
HETATM   34  C   UNL     1     -23.702  -4.294  -9.171  1.00  0.00     0.012 A 
HETATM   35  C   UNL     1     -24.193  -4.264 -10.476  1.00  0.00     0.043 A 
HETATM   36  C   UNL     1     -23.305  -4.314 -11.542  1.00  0.00     0.116 A 
HETATM   37  F   UNL     1     -23.780  -4.281 -12.795  1.00  0.00    -0.206 F 
HETATM   38  C   UNL     1     -21.935  -4.402 -11.329  1.00  0.00     0.043 A 
HETATM   39  C   UNL     1     -21.441  -4.438 -10.024  1.00  0.00     0.012 A 
ENDBRANCH  31  33
ENDBRANCH  28  31
ENDBRANCH   3  25
TORSDOF 6
ENDMDL
MODEL 4
REMARK VINA RESULT:      -8.5      5.238      9.553
REMARK  6 active torsions:
REMARK  status: ('A' for Active; 'I' for Inactive)
REMARK       I    between atoms: C_2  and  N_4 
REMARK    1  A    between atoms: N_4  and  C_5 
REMARK    2  A    between atoms: C_9  and  O_10 
REMARK    3  A    between atoms: O_10  and  C_11 
REMARK    4  A    between atoms: C_13  and  N_14 
REMARK    5  A    between atoms: N_17  and  C_18 
REMARK    6  A    between atoms: C_18  and  C_20 
ROOT
HETATM    1  C   UNL     1     -21.755  -6.438  -5.038  1.00  0.00     0.152 A 
HETATM    2  C   UNL     1     -20.787  -7.405  -5.053  1.00  0.00     0.104 A 
HETATM    3  C   UNL     1     -20.527  -8.062  -3.866  1.00  0.00     0.108 A 
HETATM    4  N   UNL     1     -21.187  -7.724  -2.743  1.00  0.00    -0.339 N 
ATOM      5  HN  UNL     1     -21.002  -8.198  -1.860  1.00  0.00     0.168 HD
HETATM    6  C   UNL     1     -22.097  -6.741  -2.829  1.00  0.00     0.183 A 
HETATM    7  N   UNL     1     -22.423  -6.059  -3.933  1.00  0.00    -0.333 N 
ATOM      8  HN  UNL     1     -23.121  -5.314  -3.938  1.00  0.00     0.168 HD
ENDROOT
BRANCH   1   9
HETATM    9  O   UNL     1     -22.022  -5.816  -6.249  1.00  0.00    -0.291 OA
BRANCH   9  10
HETATM   10  C   UNL     1     -20.978  -5.195  -6.907  1.00  0.00     0.105 A 
HETATM   11  C   UNL     1     -21.190  -4.755  -8.239  1.00  0.00     0.085 A 
HETATM   12  N   UNL     1     -22.356  -4.881  -9.000  1.00  0.00    -0.333 N 
HETATM   13  C   UNL     1     -20.131  -4.131  -8.903  1.00  0.00     0.038 A 
HETATM   14  C   UNL     1     -22.129  -4.467 -10.223  1.00  0.00     0.152 A 
ATOM     15  HN  UNL     1     -23.246  -5.241  -8.656  1.00  0.00     0.168 HD
HETATM   16  S   UNL     1     -20.619  -3.734 -10.497  1.00  0.00    -0.052 SA
HETATM   17  C   UNL     1     -18.884  -3.907  -8.299  1.00  0.00     0.021 A 
HETATM   18  C   UNL     1     -18.707  -4.315  -6.980  1.00  0.00     0.004 A 
HETATM   19  C   UNL     1     -19.743  -4.926  -6.287  1.00  0.00     0.040 A 
BRANCH  14  20
HETATM   20  N   UNL     1     -23.078  -4.558 -11.214  1.00  0.00    -0.307 N 
HETATM   21  C   UNL     1     -23.451  -3.527 -12.050  1.00  0.00     0.219 C 
HETATM   22  C   UNL     1     -24.525  -3.935 -13.024  1.00  0.00     0.117 C 
HETATM   23  O   UNL     1     -23.004  -2.385 -12.071  1.00  0.00    -0.274 OA
HETATM   24  H   UNL     1     -23.334  -5.508 -11.445  1.00  0.00     0.171 HD
ENDBRANCH  14  20
ENDBRANCH   9  10
ENDBRANCH   1   9
BRANCH   3  25
HETATM   25  N   UNL     1     -19.541  -9.023  -3.802  1.00  0.00    -0.364 N 
HETATM   26  C   UNL     1     -18.770  -9.352  -5.006  1.00  0.00     0.154 C 
HETATM   27  C   UNL     1     -18.405 -10.861  -4.960  1.00  0.00     0.293 C 
HETATM   28  N   UNL     1     -17.705 -11.315  -3.720  1.00  0.00     0.100 N 
HETATM   29  C   UNL     1     -18.560 -10.898  -2.572  1.00  0.00     0.293 C 
HETATM   30  C   UNL     1     -18.900  -9.389  -2.537  1.00  0.00     0.154 C 
BRANCH  28  31
HETATM   31  C   UNL     1     -16.324 -10.781  -3.615  1.00  0.00     0.252 C 
HETATM   32  C   UNL     1     -15.812 -10.802  -2.161  1.00  0.00     0.048 C 
BRANCH  31  33
HETATM   33  C   UNL     1     -15.318 -11.532  -4.487  1.00  0.00    -0.025 A 
HETATM   34  C   UNL     1     -14.356 -12.360  -3.879  1.00  0.00     0.012 A 
HETATM   35  C   UNL     1     -13.434 -13.067  -4.653  1.00  0.00     0.043 A 
HETATM   36  C   UNL     1     -13.472 -12.952  -6.036  1.00  0.00     0.116 A 
HETATM   37  F   UNL     1     -12.589 -13.636  -6.777  1.00  0.00    -0.206 F 
HETATM   38  C   UNL     1     -14.408 -12.137  -6.661  1.00  0.00     0.043 A 
HETATM   39  C   UNL     1     -15.326 -11.423  -5.890  1.00  0.00     0.012 A 
ENDBRANCH  31  33
ENDBRANCH  28  31
ENDBRANCH   3  25
TORSDOF 6
ENDMDL
MODEL 5
REMARK VINA RESULT:      -8.3      1.889      2.772
REMARK  6 active torsions:
REMARK  status: ('A' for Active; 'I' for Inactive)
REMARK       I    between atoms: C_2  and  N_4 
REMARK    1  A    between atoms: N_4  and  C_5 
REMARK    2  A    between atoms: C_9  and  O_10 
REMARK    3  A    between atoms: O_10  and  C_11 
REMARK    4  A    between atoms: C_13  and  N_14 
REMARK    5  A    between atoms: N_17  and  C_18 
REMARK    6  A    between atoms: C_18  and  C_20 
ROOT
HETATM    1  C   UNL     1     -20.948  -8.295  -2.087  1.00  0.00     0.152 A 
HETATM    2  C   UNL     1     -20.767  -7.880  -3.379  1.00  0.00     0.104 A 
HETATM    3  C   UNL     1     -21.314  -6.663  -3.737  1.00  0.00     0.108 A 
HETATM    4  N   UNL     1     -22.022  -5.947  -2.847  1.00  0.00    -0.339 N 
ATOM      5  HN  UNL     1     -22.435  -5.049  -3.099  1.00  0.00     0.168 HD
HETATM    6  C   UNL     1     -22.166  -6.456  -1.613  1.00  0.00     0.183 A 
HETATM    7  N   UNL     1     -21.665  -7.616  -1.172  1.00  0.00    -0.333 N 
ATOM      8  HN  UNL     1     -21.812  -7.958  -0.222  1.00  0.00     0.168 HD
ENDROOT
BRANCH   1   9
HETATM    9  O   UNL     1     -20.361  -9.503  -1.741  1.00  0.00    -0.291 OA
BRANCH   9  10
HETATM   10  C   UNL     1     -19.309  -9.961  -2.511  1.00  0.00     0.105 A 
HETATM   11  C   UNL     1     -19.518 -11.103  -3.325  1.00  0.00     0.085 A 
HETATM   12  N   UNL     1     -20.690 -11.856  -3.446  1.00  0.00    -0.333 N 
HETATM   13  C   UNL     1     -18.451 -11.565  -4.099  1.00  0.00     0.038 A 
HETATM   14  C   UNL     1     -20.461 -12.906  -4.197  1.00  0.00     0.152 A 
ATOM     15  HN  UNL     1     -21.585 -11.624  -3.017  1.00  0.00     0.168 HD
HETATM   16  S   UNL     1     -18.939 -12.969  -4.953  1.00  0.00    -0.052 SA
HETATM   17  C   UNL     1     -17.197 -10.935  -4.115  1.00  0.00     0.021 A 
HETATM   18  C   UNL     1     -17.022  -9.794  -3.337  1.00  0.00     0.004 A 
HETATM   19  C   UNL     1     -18.066  -9.301  -2.566  1.00  0.00     0.040 A 
BRANCH  14  20
HETATM   20  N   UNL     1     -21.415 -13.871  -4.416  1.00  0.00    -0.307 N 
HETATM   21  C   UNL     1     -22.570 -13.692  -5.149  1.00  0.00     0.219 C 
HETATM   22  C   UNL     1     -23.421 -14.933  -5.196  1.00  0.00     0.117 C 
HETATM   23  O   UNL     1     -22.930 -12.677  -5.735  1.00  0.00    -0.274 OA
HETATM   24  H   UNL     1     -21.107 -14.806  -4.188  1.00  0.00     0.171 HD
ENDBRANCH  14  20
ENDBRANCH   9  10
ENDBRANCH   1   9
BRANCH   3  25
HETATM   25  N   UNL     1     -21.200  -6.201  -5.031  1.00  0.00    -0.364 N 
HETATM   26  C   UNL     1     -22.407  -6.020  -5.846  1.00  0.00     0.154 C 
HETATM   27  C   UNL     1     -22.054  -6.329  -7.325  1.00  0.00     0.293 C 
HETATM   28  N   UNL     1     -20.897  -5.563  -7.883  1.00  0.00     0.100 N 
HETATM   29  C   UNL     1     -19.749  -5.796  -6.960  1.00  0.00     0.293 C 
HETATM   30  C   UNL     1     -20.031  -5.442  -5.480  1.00  0.00     0.154 C 
BRANCH  28  31
HETATM   31  C   UNL     1     -21.197  -4.119  -8.055  1.00  0.00     0.252 C 
HETATM   32  C   UNL     1     -19.923  -3.303  -8.350  1.00  0.00     0.048 C 
BRANCH  31  33
HETATM   33  C   UNL     1     -22.212  -3.841  -9.164  1.00  0.00    -0.025 A 
HETATM   34  C   UNL     1     -23.569  -3.667  -8.833  1.00  0.00     0.012 A 
HETATM   35  C   UNL     1     -24.514  -3.400  -9.824  1.00  0.00     0.043 A 
HETATM   36  C   UNL     1     -24.107  -3.303 -11.148  1.00  0.00     0.116 A 
HETATM   37  F   UNL     1     -25.016  -3.042 -12.097  1.00  0.00    -0.206 F 
HETATM   38  C   UNL     1     -22.775  -3.476 -11.503  1.00  0.00     0.043 A 
HETATM   39  C   UNL     1     -21.828  -3.751 -10.514  1.00  0.00     0.012 A 
ENDBRANCH  31  33
ENDBRANCH  28  31
ENDBRANCH   3  25
TORSDOF 6
ENDMDL
MODEL 6
REMARK VINA RESULT:      -8.2      3.019      3.781
REMARK  6 active torsions:
REMARK  status: ('A' for Active; 'I' for Inactive)
REMARK       I    between atoms: C_2  and  N_4 
REMARK    1  A    between atoms: N_4  and  C_5 
REMARK    2  A    between atoms: C_9  and  O_10 
REMARK    3  A    between atoms: O_10  and  C_11 
REMARK    4  A    between atoms: C_13  and  N_14 
REMARK    5  A    between atoms: N_17  and  C_18 
REMARK    6  A    between atoms: C_18  and  C_20 
ROOT
HETATM    1  C   UNL     1     -19.817 -10.034  -2.537  1.00  0.00     0.152 A 
HETATM    2  C   UNL     1     -19.880  -9.244  -3.652  1.00  0.00     0.104 A 
HETATM    3  C   UNL     1     -20.377  -7.965  -3.496  1.00  0.00     0.108 A 
HETATM    4  N   UNL     1     -20.807  -7.544  -2.294  1.00  0.00    -0.339 N 
ATOM      5  HN  UNL     1     -21.180  -6.603  -2.165  1.00  0.00     0.168 HD
HETATM    6  C   UNL     1     -20.728  -8.407  -1.268  1.00  0.00     0.183 A 
HETATM    7  N   UNL     1     -20.253  -9.657  -1.321  1.00  0.00    -0.333 N 
ATOM      8  HN  UNL     1     -20.223 -10.272  -0.507  1.00  0.00     0.168 HD
ENDROOT
BRANCH   1   9
HETATM    9  O   UNL     1     -19.283 -11.303  -2.711  1.00  0.00    -0.291 OA
BRANCH   9  10
HETATM   10  C   UNL     1     -17.910 -11.425  -2.802  1.00  0.00     0.105 A 
HETATM   11  C   UNL     1     -17.359 -11.945  -4.001  1.00  0.00     0.085 A 
HETATM   12  N   UNL     1     -18.051 -12.371  -5.139  1.00  0.00    -0.333 N 
HETATM   13  C   UNL     1     -15.970 -12.071  -4.088  1.00  0.00     0.038 A 
HETATM   14  C   UNL     1     -17.208 -12.900  -5.993  1.00  0.00     0.152 A 
ATOM     15  HN  UNL     1     -19.057 -12.283  -5.282  1.00  0.00     0.168 HD
HETATM   16  S   UNL     1     -15.558 -12.755  -5.605  1.00  0.00    -0.052 SA
HETATM   17  C   UNL     1     -15.108 -11.687  -3.049  1.00  0.00     0.021 A 
HETATM   18  C   UNL     1     -15.665 -11.147  -1.894  1.00  0.00     0.004 A 
HETATM   19  C   UNL     1     -17.041 -10.996  -1.781  1.00  0.00     0.040 A 
BRANCH  14  20
HETATM   20  N   UNL     1     -17.625 -13.482  -7.166  1.00  0.00    -0.307 N 
HETATM   21  C   UNL     1     -18.467 -12.895  -8.086  1.00  0.00     0.219 C 
HETATM   22  C   UNL     1     -18.748 -13.791  -9.264  1.00  0.00     0.117 C 
HETATM   23  O   UNL     1     -18.964 -11.775  -8.033  1.00  0.00    -0.274 OA
HETATM   24  H   UNL     1     -17.089 -14.299  -7.427  1.00  0.00     0.171 HD
ENDBRANCH  14  20
ENDBRANCH   9  10
ENDBRANCH   1   9
BRANCH   3  25
HETATM   25  N   UNL     1     -20.502  -7.128  -4.584  1.00  0.00    -0.364 N 
HETATM   26  C   UNL     1     -20.332  -7.667  -5.938  1.00  0.00     0.154 C 
HETATM   27  C   UNL     1     -19.696  -6.568  -6.830  1.00  0.00     0.293 C 
HETATM   28  N   UNL     1     -20.418  -5.259  -6.850  1.00  0.00     0.100 N 
HETATM   29  C   UNL     1     -20.559  -4.831  -5.429  1.00  0.00     0.293 C 
HETATM   30  C   UNL     1     -21.247  -5.869  -4.509  1.00  0.00     0.154 C 
BRANCH  28  31
HETATM   31  C   UNL     1     -21.727  -5.338  -7.546  1.00  0.00     0.252 C 
HETATM   32  C   UNL     1     -22.865  -4.748  -6.691  1.00  0.00     0.048 C 
BRANCH  31  33
HETATM   33  C   UNL     1     -21.732  -4.632  -8.903  1.00  0.00    -0.025 A 
HETATM   34  C   UNL     1     -20.524  -4.481  -9.609  1.00  0.00     0.012 A 
HETATM   35  C   UNL     1     -20.503  -3.852 -10.855  1.00  0.00     0.043 A 
HETATM   36  C   UNL     1     -21.687  -3.376 -11.400  1.00  0.00     0.116 A 
HETATM   37  F   UNL     1     -21.665  -2.777 -12.599  1.00  0.00    -0.206 F 
HETATM   38  C   UNL     1     -22.893  -3.508 -10.722  1.00  0.00     0.043 A 
HETATM   39  C   UNL     1     -22.916  -4.130  -9.472  1.00  0.00     0.012 A 
ENDBRANCH  31  33
ENDBRANCH  28  31
ENDBRANCH   3  25
TORSDOF 6
ENDMDL
MODEL 7
REMARK VINA RESULT:      -8.2      4.054      8.996
REMARK  6 active torsions:
REMARK  status: ('A' for Active; 'I' for Inactive)
REMARK       I    between atoms: C_2  and  N_4 
REMARK    1  A    between atoms: N_4  and  C_5 
REMARK    2  A    between atoms: C_9  and  O_10 
REMARK    3  A    between atoms: O_10  and  C_11 
REMARK    4  A    between atoms: C_13  and  N_14 
REMARK    5  A    between atoms: N_17  and  C_18 
REMARK    6  A    between atoms: C_18  and  C_20 
ROOT
HETATM    1  C   UNL     1     -22.060  -6.460  -4.748  1.00  0.00     0.152 A 
HETATM    2  C   UNL     1     -21.679  -7.733  -5.073  1.00  0.00     0.104 A 
HETATM    3  C   UNL     1     -21.483  -8.622  -4.033  1.00  0.00     0.108 A 
HETATM    4  N   UNL     1     -21.633  -8.221  -2.758  1.00  0.00    -0.339 N 
ATOM      5  HN  UNL     1     -21.487  -8.865  -1.981  1.00  0.00     0.168 HD
HETATM    6  C   UNL     1     -21.982  -6.942  -2.546  1.00  0.00     0.183 A 
HETATM    7  N   UNL     1     -22.204  -6.015  -3.486  1.00  0.00    -0.333 N 
ATOM      8  HN  UNL     1     -22.461  -5.053  -3.265  1.00  0.00     0.168 HD
ENDROOT
BRANCH   1   9
HETATM    9  O   UNL     1     -22.285  -5.596  -5.810  1.00  0.00    -0.291 OA
BRANCH   9  10
HETATM   10  C   UNL     1     -21.193  -5.152  -6.531  1.00  0.00     0.105 A 
HETATM   11  C   UNL     1     -21.406  -4.680  -7.851  1.00  0.00     0.085 A 
HETATM   12  N   UNL     1     -22.619  -4.612  -8.544  1.00  0.00    -0.333 N 
HETATM   13  C   UNL     1     -20.300  -4.236  -8.579  1.00  0.00     0.038 A 
HETATM   14  C   UNL     1     -22.398  -4.237  -9.781  1.00  0.00     0.152 A 
ATOM     15  HN  UNL     1     -23.535  -4.822  -8.147  1.00  0.00     0.168 HD
HETATM   16  S   UNL     1     -20.807  -3.761 -10.146  1.00  0.00    -0.052 SA
HETATM   17  C   UNL     1     -19.000  -4.221  -8.049  1.00  0.00     0.021 A 
HETATM   18  C   UNL     1     -18.816  -4.655  -6.739  1.00  0.00     0.004 A 
HETATM   19  C   UNL     1     -19.898  -5.090  -5.984  1.00  0.00     0.040 A 
BRANCH  14  20
HETATM   20  N   UNL     1     -23.404  -4.169 -10.715  1.00  0.00    -0.307 N 
HETATM   21  C   UNL     1     -23.537  -3.179 -11.665  1.00  0.00     0.219 C 
HETATM   22  C   UNL     1     -24.750  -3.376 -12.537  1.00  0.00     0.117 C 
HETATM   23  O   UNL     1     -22.793  -2.222 -11.854  1.00  0.00    -0.274 OA
HETATM   24  H   UNL     1     -23.930  -5.027 -10.809  1.00  0.00     0.171 HD
ENDBRANCH  14  20
ENDBRANCH   9  10
ENDBRANCH   1   9
BRANCH   3  25
HETATM   25  N   UNL     1     -21.065  -9.910  -4.286  1.00  0.00    -0.364 N 
HETATM   26  C   UNL     1     -20.948 -10.376  -5.673  1.00  0.00     0.154 C 
HETATM   27  C   UNL     1     -21.300 -11.888  -5.716  1.00  0.00     0.293 C 
HETATM   28  N   UNL     1     -20.520 -12.755  -4.780  1.00  0.00     0.100 N 
HETATM   29  C   UNL     1     -20.685 -12.168  -3.420  1.00  0.00     0.293 C 
HETATM   30  C   UNL     1     -20.287 -10.676  -3.310  1.00  0.00     0.154 C 
BRANCH  28  31
HETATM   31  C   UNL     1     -19.093 -12.878  -5.170  1.00  0.00     0.252 C 
HETATM   32  C   UNL     1     -18.300 -13.742  -4.169  1.00  0.00     0.048 C 
BRANCH  31  33
HETATM   33  C   UNL     1     -18.898 -13.464  -6.568  1.00  0.00    -0.025 A 
HETATM   34  C   UNL     1     -19.200 -14.819  -6.800  1.00  0.00     0.012 A 
HETATM   35  C   UNL     1     -19.043 -15.376  -8.070  1.00  0.00     0.043 A 
HETATM   36  C   UNL     1     -18.587 -14.582  -9.113  1.00  0.00     0.116 A 
HETATM   37  F   UNL     1     -18.441 -15.118 -10.332  1.00  0.00    -0.206 F 
HETATM   38  C   UNL     1     -18.276 -13.243  -8.910  1.00  0.00     0.043 A 
HETATM   39  C   UNL     1     -18.425 -12.685  -7.640  1.00  0.00     0.012 A 
ENDBRANCH  31  33
ENDBRANCH  28  31
ENDBRANCH   3  25
TORSDOF 6
ENDMDL
MODEL 8
REMARK VINA RESULT:      -8.1      7.857     11.829
REMARK  6 active torsions:
REMARK  status: ('A' for Active; 'I' for Inactive)
REMARK       I    between atoms: C_2  and  N_4 
REMARK    1  A    between atoms: N_4  and  C_5 
REMARK    2  A    between atoms: C_9  and  O_10 
REMARK    3  A    between atoms: O_10  and  C_11 
REMARK    4  A    between atoms: C_13  and  N_14 
REMARK    5  A    between atoms: N_17  and  C_18 
REMARK    6  A    between atoms: C_18  and  C_20 
ROOT
HETATM    1  C   UNL     1     -18.534 -10.627  -2.309  1.00  0.00     0.152 A 
HETATM    2  C   UNL     1     -17.945 -11.638  -1.599  1.00  0.00     0.104 A 
HETATM    3  C   UNL     1     -16.566 -11.647  -1.533  1.00  0.00     0.108 A 
HETATM    4  N   UNL     1     -15.847 -10.710  -2.176  1.00  0.00    -0.339 N 
ATOM      5  HN  UNL     1     -14.828 -10.707  -2.139  1.00  0.00     0.168 HD
HETATM    6  C   UNL     1     -16.521  -9.777  -2.869  1.00  0.00     0.183 A 
HETATM    7  N   UNL     1     -17.851  -9.681  -2.980  1.00  0.00    -0.333 N 
ATOM      8  HN  UNL     1     -18.309  -8.952  -3.528  1.00  0.00     0.168 HD
ENDROOT
BRANCH   1   9
HETATM    9  O   UNL     1     -19.921 -10.619  -2.333  1.00  0.00    -0.291 OA
BRANCH   9  10
HETATM   10  C   UNL     1     -20.582  -9.727  -1.510  1.00  0.00     0.105 A 
HETATM   11  C   UNL     1     -21.039  -8.507  -2.070  1.00  0.00     0.085 A 
HETATM   12  N   UNL     1     -20.896  -8.072  -3.392  1.00  0.00    -0.333 N 
HETATM   13  C   UNL     1     -21.704  -7.606  -1.235  1.00  0.00     0.038 A 
HETATM   14  C   UNL     1     -21.339  -6.843  -3.500  1.00  0.00     0.152 A 
ATOM     15  HN  UNL     1     -20.507  -8.627  -4.154  1.00  0.00     0.168 HD
HETATM   16  S   UNL     1     -22.116  -6.204  -2.129  1.00  0.00    -0.052 SA
HETATM   17  C   UNL     1     -21.950  -7.870   0.122  1.00  0.00     0.021 A 
HETATM   18  C   UNL     1     -21.524  -9.088   0.645  1.00  0.00     0.004 A 
HETATM   19  C   UNL     1     -20.872 -10.011  -0.162  1.00  0.00     0.040 A 
BRANCH  14  20
HETATM   20  N   UNL     1     -21.240  -6.131  -4.672  1.00  0.00    -0.307 N 
HETATM   21  C   UNL     1     -20.489  -6.505  -5.765  1.00  0.00     0.219 C 
HETATM   22  C   UNL     1     -20.575  -5.509  -6.892  1.00  0.00     0.117 C 
HETATM   23  O   UNL     1     -19.810  -7.519  -5.892  1.00  0.00    -0.274 OA
HETATM   24  H   UNL     1     -21.943  -5.411  -4.769  1.00  0.00     0.171 HD
ENDBRANCH  14  20
ENDBRANCH   9  10
ENDBRANCH   1   9
BRANCH   3  25
HETATM   25  N   UNL     1     -15.906 -12.656  -0.864  1.00  0.00    -0.364 N 
HETATM   26  C   UNL     1     -14.459 -12.819  -1.043  1.00  0.00     0.154 C 
HETATM   27  C   UNL     1     -14.118 -14.331  -0.951  1.00  0.00     0.293 C 
HETATM   28  N   UNL     1     -14.598 -15.024   0.284  1.00  0.00     0.100 N 
HETATM   29  C   UNL     1     -16.063 -14.761   0.375  1.00  0.00     0.293 C 
HETATM   30  C   UNL     1     -16.451 -13.263   0.352  1.00  0.00     0.154 C 
BRANCH  28  31
HETATM   31  C   UNL     1     -13.872 -14.589   1.503  1.00  0.00     0.252 C 
HETATM   32  C   UNL     1     -14.403 -15.295   2.766  1.00  0.00     0.048 C 
BRANCH  31  33
HETATM   33  C   UNL     1     -12.363 -14.822   1.422  1.00  0.00    -0.025 A 
HETATM   34  C   UNL     1     -11.516 -13.759   1.058  1.00  0.00     0.012 A 
HETATM   35  C   UNL     1     -10.134 -13.941   0.989  1.00  0.00     0.043 A 
HETATM   36  C   UNL     1      -9.594 -15.185   1.285  1.00  0.00     0.116 A 
HETATM   37  F   UNL     1      -8.266 -15.357   1.222  1.00  0.00    -0.206 F 
HETATM   38  C   UNL     1     -10.407 -16.254   1.641  1.00  0.00     0.043 A 
HETATM   39  C   UNL     1     -11.791 -16.076   1.704  1.00  0.00     0.012 A 
ENDBRANCH  31  33
ENDBRANCH  28  31
ENDBRANCH   3  25
TORSDOF 6
ENDMDL
MODEL 9
REMARK VINA RESULT:      -8.1     17.149     20.249
REMARK  6 active torsions:
REMARK  status: ('A' for Active; 'I' for Inactive)
REMARK       I    between atoms: C_2  and  N_4 
REMARK    1  A    between atoms: N_4  and  C_5 
REMARK    2  A    between atoms: C_9  and  O_10 
REMARK    3  A    between atoms: O_10  and  C_11 
REMARK    4  A    between atoms: C_13  and  N_14 
REMARK    5  A    between atoms: N_17  and  C_18 
REMARK    6  A    between atoms: C_18  and  C_20 
ROOT
HETATM    1  C   UNL     1     -23.274   9.113   0.508  1.00  0.00     0.152 A 
HETATM    2  C   UNL     1     -22.522   9.015   1.647  1.00  0.00     0.104 A 
HETATM    3  C   UNL     1     -21.574   9.995   1.869  1.00  0.00     0.108 A 
HETATM    4  N   UNL     1     -21.390  10.979   0.970  1.00  0.00    -0.339 N 
ATOM      5  HN  UNL     1     -20.691  11.706   1.119  1.00  0.00     0.168 HD
HETATM    6  C   UNL     1     -22.160  10.968  -0.129  1.00  0.00     0.183 A 
HETATM    7  N   UNL     1     -23.109  10.070  -0.423  1.00  0.00    -0.333 N 
ATOM      8  HN  UNL     1     -23.661  10.109  -1.280  1.00  0.00     0.168 HD
ENDROOT
BRANCH   1   9
HETATM    9  O   UNL     1     -24.242   8.137   0.325  1.00  0.00    -0.291 OA
BRANCH   9  10
HETATM   10  C   UNL     1     -25.570   8.517   0.378  1.00  0.00     0.105 A 
HETATM   11  C   UNL     1     -26.356   8.383  -0.794  1.00  0.00     0.085 A 
HETATM   12  N   UNL     1     -25.945   7.906  -2.042  1.00  0.00    -0.333 N 
HETATM   13  C   UNL     1     -27.697   8.772  -0.737  1.00  0.00     0.038 A 
HETATM   14  C   UNL     1     -26.920   8.046  -2.908  1.00  0.00     0.152 A 
ATOM     15  HN  UNL     1     -25.028   7.510  -2.247  1.00  0.00     0.168 HD
HETATM   16  S   UNL     1     -28.415   8.554  -2.277  1.00  0.00    -0.052 SA
HETATM   17  C   UNL     1     -28.292   9.268   0.433  1.00  0.00     0.021 A 
HETATM   18  C   UNL     1     -27.513   9.361   1.583  1.00  0.00     0.004 A 
HETATM   19  C   UNL     1     -26.181   8.969   1.564  1.00  0.00     0.040 A 
BRANCH  14  20
HETATM   20  N   UNL     1     -26.765   7.739  -4.239  1.00  0.00    -0.307 N 
HETATM   21  C   UNL     1     -25.938   6.752  -4.734  1.00  0.00     0.219 C 
HETATM   22  C   UNL     1     -25.977   6.668  -6.237  1.00  0.00     0.117 C 
HETATM   23  O   UNL     1     -25.230   5.983  -4.093  1.00  0.00    -0.274 OA
HETATM   24  H   UNL     1     -27.476   8.141  -4.834  1.00  0.00     0.171 HD
ENDBRANCH  14  20
ENDBRANCH   9  10
ENDBRANCH   1   9
BRANCH   3  25
HETATM   25  N   UNL     1     -20.758   9.938   2.978  1.00  0.00    -0.364 N 
HETATM   26  C   UNL     1     -19.426   9.332   2.868  1.00  0.00     0.154 C 
HETATM   27  C   UNL     1     -19.086   8.641   4.216  1.00  0.00     0.293 C 
HETATM   28  N   UNL     1     -19.193   9.510   5.428  1.00  0.00     0.100 N 
HETATM   29  C   UNL     1     -20.566  10.092   5.413  1.00  0.00     0.293 C 
HETATM   30  C   UNL     1     -20.931  10.847   4.113  1.00  0.00     0.154 C 
BRANCH  28  31
HETATM   31  C   UNL     1     -18.140  10.555   5.477  1.00  0.00     0.252 C 
HETATM   32  C   UNL     1     -18.414  11.589   6.587  1.00  0.00     0.048 C 
BRANCH  31  33
HETATM   33  C   UNL     1     -16.736   9.988   5.686  1.00  0.00    -0.025 A 
HETATM   34  C   UNL     1     -15.836   9.949   4.604  1.00  0.00     0.012 A 
HETATM   35  C   UNL     1     -14.545   9.448   4.771  1.00  0.00     0.043 A 
HETATM   36  C   UNL     1     -14.146   8.986   6.018  1.00  0.00     0.116 A 
HETATM   37  F   UNL     1     -12.904   8.510   6.176  1.00  0.00    -0.206 F 
HETATM   38  C   UNL     1     -15.016   9.007   7.101  1.00  0.00     0.043 A 
HETATM   39  C   UNL     1     -16.311   9.502   6.936  1.00  0.00     0.012 A 
ENDBRANCH  31  33
ENDBRANCH  28  31
ENDBRANCH   3  25
TORSDOF 6
ENDMDL
