REMARK  9 active torsions:
REMARK  status: ('A' for Active; 'I' for Inactive)
REMARK    1  A    between atoms: C_2  and  C_3 
REMARK    2  A    between atoms: C_3  and  C_4 
REMARK    3  A    between atoms: C_7  and  C_8 
REMARK    4  A    between atoms: C_14  and  C_15 
REMARK    5  A    between atoms: C_16  and  C_17 
REMARK       I    between atoms: C_17  and  N_19 
REMARK    6  A    between atoms: N_19  and  C_20 
REMARK    7  A    between atoms: C_20  and  C_22 
REMARK    8  A    between atoms: C_26  and  N_27 
REMARK    9  A    between atoms: N_27  and  S_28 
ROOT
HETATM    1  C   UNL     1       4.114  -6.302   0.595  1.00  0.00     0.241 C 
HETATM    2  O   UNL     1       2.898  -6.238   0.727  1.00  0.00    -0.269 OA
HETATM    3  N   UNL     1       4.823  -7.476   0.463  1.00  0.00    -0.349 N 
HETATM    4  H   UNL     1       5.820  -7.441   0.313  1.00  0.00     0.163 HD
ENDROOT
BRANCH   1   5
HETATM    5  C   UNL     1       4.972  -5.085   0.555  1.00  0.00     0.075 C 
HETATM    6  C   UNL     1       4.410  -3.872   0.656  1.00  0.00     0.019 C 
BRANCH   6   7
HETATM    7  C   UNL     1       5.146  -2.586   0.677  1.00  0.00    -0.013 A 
HETATM    8  C   UNL     1       4.669  -1.462   1.368  1.00  0.00     0.019 A 
HETATM    9  N   UNL     1       5.334  -0.273   1.385  1.00  0.00    -0.355 N 
HETATM   10  C   UNL     1       6.487  -0.144   0.680  1.00  0.00     0.117 A 
ATOM     11  HN  UNL     1       4.969   0.513   1.923  1.00  0.00     0.166 HD
HETATM   12  C   UNL     1       7.007  -1.205  -0.059  1.00  0.00     0.035 A 
HETATM   13  C   UNL     1       6.322  -2.426  -0.060  1.00  0.00     0.015 A 
BRANCH   8  14
HETATM   14  C   UNL     1       3.395  -1.476   2.190  1.00  0.00     0.057 C 
BRANCH  14  15
HETATM   15  C   UNL     1       3.618  -1.941   3.630  1.00  0.00     0.002 C 
HETATM   16  C   UNL     1       2.308  -1.947   4.405  1.00  0.00     0.005 C 
ENDBRANCH  14  15
ENDBRANCH   8  14
BRANCH  10  17
HETATM   17  C   UNL     1       7.232   1.188   0.695  1.00  0.00     0.432 C 
HETATM   18  F   UNL     1       6.644   2.155   1.459  1.00  0.00    -0.165 F 
HETATM   19  F   UNL     1       8.508   1.065   1.172  1.00  0.00    -0.165 F 
HETATM   20  F   UNL     1       7.364   1.729  -0.550  1.00  0.00    -0.165 F 
ENDBRANCH  10  17
ENDBRANCH   6   7
ENDBRANCH   1   5
BRANCH   3  21
HETATM   21  C   UNL     1       4.159  -8.773   0.403  1.00  0.00     0.114 C 
HETATM   22  C   UNL     1       4.440  -9.466  -0.929  1.00  0.00     0.037 C 
BRANCH  21  23
HETATM   23  C   UNL     1       4.523  -9.667   1.580  1.00  0.00    -0.030 A 
HETATM   24  C   UNL     1       3.491 -10.122   2.422  1.00  0.00     0.054 A 
HETATM   25  C   UNL     1       3.756 -10.962   3.507  1.00  0.00     0.147 A 
HETATM   26  F   UNL     1       2.731 -11.337   4.286  1.00  0.00    -0.204 F 
HETATM   27  C   UNL     1       5.058 -11.344   3.821  1.00  0.00     0.119 A 
HETATM   28  C   UNL     1       6.083 -10.932   2.967  1.00  0.00     0.147 A 
HETATM   29  F   UNL     1       7.351 -11.273   3.240  1.00  0.00    -0.204 F 
HETATM   30  C   UNL     1       5.829 -10.103   1.861  1.00  0.00     0.054 A 
BRANCH  27  31
HETATM   31  N   UNL     1       5.344 -12.015   5.060  1.00  0.00    -0.279 N 
HETATM   32  H   UNL     1       6.124 -11.624   5.590  1.00  0.00     0.179 HD
BRANCH  31  33
HETATM   33  S   UNL     1       5.384 -13.691   5.146  1.00  0.00     0.227 S 
HETATM   34  C   UNL     1       3.752 -14.048   5.757  1.00  0.00     0.186 C 
HETATM   35  O   UNL     1       5.543 -14.263   3.827  1.00  0.00    -0.206 OA
HETATM   36  O   UNL     1       6.311 -13.994   6.215  1.00  0.00    -0.206 OA
ENDBRANCH  31  33
ENDBRANCH  27  31
ENDBRANCH  21  23
ENDBRANCH   3  21
TORSDOF 9
