MODEL 1
REMARK VINA RESULT:     -10.5      0.000      0.000
REMARK  9 active torsions:
REMARK  status: ('A' for Active; 'I' for Inactive)
REMARK    1  A    between atoms: C_2  and  C_3 
REMARK    2  A    between atoms: C_3  and  C_4 
REMARK    3  A    between atoms: C_7  and  C_8 
REMARK    4  A    between atoms: C_14  and  C_15 
REMARK    5  A    between atoms: C_16  and  C_17 
REMARK       I    between atoms: C_17  and  N_19 
REMARK    6  A    between atoms: N_19  and  C_20 
REMARK    7  A    between atoms: C_20  and  C_22 
REMARK    8  A    between atoms: C_26  and  N_27 
REMARK    9  A    between atoms: N_27  and  S_28 
ROOT
HETATM    1  C   UNL     1     -20.925  -6.674  -5.975  1.00  0.00     0.241 C 
HETATM    2  O   UNL     1     -19.983  -7.078  -6.646  1.00  0.00    -0.269 OA
HETATM    3  N   UNL     1     -21.380  -5.374  -5.975  1.00  0.00    -0.349 N 
HETATM    4  H   UNL     1     -22.192  -5.131  -5.427  1.00  0.00     0.163 HD
ENDROOT
BRANCH   1   5
HETATM    5  C   UNL     1     -21.699  -7.573  -5.073  1.00  0.00     0.075 C 
HETATM    6  C   UNL     1     -21.062  -8.527  -4.380  1.00  0.00     0.019 C 
BRANCH   6   7
HETATM    7  C   UNL     1     -21.699  -9.456  -3.417  1.00  0.00    -0.013 A 
HETATM    8  C   UNL     1     -21.644  -9.249  -2.030  1.00  0.00     0.019 A 
HETATM    9  N   UNL     1     -22.219 -10.102  -1.137  1.00  0.00    -0.355 N 
HETATM   10  C   UNL     1     -22.842 -11.221  -1.589  1.00  0.00     0.117 A 
ATOM     11  HN  UNL     1     -22.182  -9.902  -0.137  1.00  0.00     0.166 HD
HETATM   12  C   UNL     1     -22.909 -11.513  -2.950  1.00  0.00     0.035 A 
HETATM   13  C   UNL     1     -22.325 -10.623  -3.860  1.00  0.00     0.015 A 
BRANCH   8  14
HETATM   14  C   UNL     1     -20.978  -8.042  -1.400  1.00  0.00     0.057 C 
BRANCH  14  15
HETATM   15  C   UNL     1     -21.979  -6.992  -0.915  1.00  0.00     0.002 C 
HETATM   16  C   UNL     1     -22.204  -5.927  -1.978  1.00  0.00     0.005 C 
ENDBRANCH  14  15
ENDBRANCH   8  14
BRANCH  10  17
HETATM   17  C   UNL     1     -23.484 -12.179  -0.590  1.00  0.00     0.432 C 
HETATM   18  F   UNL     1     -22.597 -12.968   0.085  1.00  0.00    -0.165 F 
HETATM   19  F   UNL     1     -24.202 -11.524   0.372  1.00  0.00    -0.165 F 
HETATM   20  F   UNL     1     -24.368 -13.035  -1.178  1.00  0.00    -0.165 F 
ENDBRANCH  10  17
ENDBRANCH   6   7
ENDBRANCH   1   5
BRANCH   3  21
HETATM   21  C   UNL     1     -20.804  -4.357  -6.846  1.00  0.00     0.114 C 
HETATM   22  C   UNL     1     -19.278  -4.437  -6.839  1.00  0.00     0.037 C 
BRANCH  21  23
HETATM   23  C   UNL     1     -21.356  -4.425  -8.263  1.00  0.00    -0.030 A 
HETATM   24  C   UNL     1     -20.464  -4.264  -9.340  1.00  0.00     0.054 A 
HETATM   25  C   UNL     1     -20.903  -4.337 -10.664  1.00  0.00     0.147 A 
HETATM   26  F   UNL     1     -20.006  -4.147 -11.643  1.00  0.00    -0.204 F 
HETATM   27  C   UNL     1     -22.249  -4.527 -10.967  1.00  0.00     0.119 A 
HETATM   28  C   UNL     1     -23.134  -4.730  -9.906  1.00  0.00     0.147 A 
HETATM   29  F   UNL     1     -24.440  -4.909 -10.157  1.00  0.00    -0.204 F 
HETATM   30  C   UNL     1     -22.703  -4.679  -8.570  1.00  0.00     0.054 A 
BRANCH  27  31
HETATM   31  N   UNL     1     -22.724  -4.374 -12.316  1.00  0.00    -0.279 N 
HETATM   32  H   UNL     1     -22.087  -4.717 -13.036  1.00  0.00     0.179 HD
BRANCH  31  33
HETATM   33  S   UNL     1     -23.436  -2.942 -12.824  1.00  0.00     0.227 S 
HETATM   34  C   UNL     1     -22.858  -2.842 -14.504  1.00  0.00     0.186 C 
HETATM   35  O   UNL     1     -24.877  -3.060 -12.814  1.00  0.00    -0.206 OA
HETATM   36  O   UNL     1     -22.760  -1.898 -12.083  1.00  0.00    -0.206 OA
ENDBRANCH  31  33
ENDBRANCH  27  31
ENDBRANCH  21  23
ENDBRANCH   3  21
TORSDOF 9
ENDMDL
MODEL 2
REMARK VINA RESULT:     -10.3      0.684      1.745
REMARK  9 active torsions:
REMARK  status: ('A' for Active; 'I' for Inactive)
REMARK    1  A    between atoms: C_2  and  C_3 
REMARK    2  A    between atoms: C_3  and  C_4 
REMARK    3  A    between atoms: C_7  and  C_8 
REMARK    4  A    between atoms: C_14  and  C_15 
REMARK    5  A    between atoms: C_16  and  C_17 
REMARK       I    between atoms: C_17  and  N_19 
REMARK    6  A    between atoms: N_19  and  C_20 
REMARK    7  A    between atoms: C_20  and  C_22 
REMARK    8  A    between atoms: C_26  and  N_27 
REMARK    9  A    between atoms: N_27  and  S_28 
ROOT
HETATM    1  C   UNL     1     -20.970  -6.761  -5.898  1.00  0.00     0.241 C 
HETATM    2  O   UNL     1     -19.969  -7.106  -6.512  1.00  0.00    -0.269 OA
HETATM    3  N   UNL     1     -21.503  -5.490  -5.926  1.00  0.00    -0.349 N 
HETATM    4  H   UNL     1     -22.358  -5.298  -5.427  1.00  0.00     0.163 HD
ENDROOT
BRANCH   1   5
HETATM    5  C   UNL     1     -21.740  -7.705  -5.041  1.00  0.00     0.075 C 
HETATM    6  C   UNL     1     -21.086  -8.564  -4.245  1.00  0.00     0.019 C 
BRANCH   6   7
HETATM    7  C   UNL     1     -21.724  -9.522  -3.311  1.00  0.00    -0.013 A 
HETATM    8  C   UNL     1     -21.699  -9.340  -1.920  1.00  0.00     0.019 A 
HETATM    9  N   UNL     1     -22.274 -10.221  -1.054  1.00  0.00    -0.355 N 
HETATM   10  C   UNL     1     -22.867 -11.342  -1.539  1.00  0.00     0.117 A 
ATOM     11  HN  UNL     1     -22.260 -10.039  -0.051  1.00  0.00     0.166 HD
HETATM   12  C   UNL     1     -22.903 -11.609  -2.906  1.00  0.00     0.035 A 
HETATM   13  C   UNL     1     -22.319 -10.692  -3.788  1.00  0.00     0.015 A 
BRANCH   8  14
HETATM   14  C   UNL     1     -21.067  -8.133  -1.255  1.00  0.00     0.057 C 
BRANCH  14  15
HETATM   15  C   UNL     1     -22.091  -7.073  -0.846  1.00  0.00     0.002 C 
HETATM   16  C   UNL     1     -22.175  -5.971  -1.893  1.00  0.00     0.005 C 
ENDBRANCH  14  15
ENDBRANCH   8  14
BRANCH  10  17
HETATM   17  C   UNL     1     -23.509 -12.331  -0.570  1.00  0.00     0.432 C 
HETATM   18  F   UNL     1     -24.500 -13.095  -1.118  1.00  0.00    -0.165 F 
HETATM   19  F   UNL     1     -22.603 -13.216  -0.054  1.00  0.00    -0.165 F 
HETATM   20  F   UNL     1     -24.070 -11.717   0.511  1.00  0.00    -0.165 F 
ENDBRANCH  10  17
ENDBRANCH   6   7
ENDBRANCH   1   5
BRANCH   3  21
HETATM   21  C   UNL     1     -20.939  -4.439  -6.765  1.00  0.00     0.114 C 
HETATM   22  C   UNL     1     -19.414  -4.520  -6.787  1.00  0.00     0.037 C 
BRANCH  21  23
HETATM   23  C   UNL     1     -21.514  -4.448  -8.174  1.00  0.00    -0.030 A 
HETATM   24  C   UNL     1     -22.913  -4.455  -8.328  1.00  0.00     0.054 A 
HETATM   25  C   UNL     1     -23.505  -4.443  -9.594  1.00  0.00     0.147 A 
HETATM   26  F   UNL     1     -24.843  -4.479  -9.671  1.00  0.00    -0.204 F 
HETATM   27  C   UNL     1     -22.730  -4.468 -10.751  1.00  0.00     0.119 A 
HETATM   28  C   UNL     1     -21.342  -4.419 -10.608  1.00  0.00     0.147 A 
HETATM   29  F   UNL     1     -20.561  -4.449 -11.699  1.00  0.00    -0.204 F 
HETATM   30  C   UNL     1     -20.733  -4.411  -9.342  1.00  0.00     0.054 A 
BRANCH  27  31
HETATM   31  N   UNL     1     -23.340  -4.684 -12.035  1.00  0.00    -0.279 N 
HETATM   32  H   UNL     1     -22.835  -5.325 -12.648  1.00  0.00     0.179 HD
BRANCH  31  33
HETATM   33  S   UNL     1     -23.946  -3.400 -12.931  1.00  0.00     0.227 S 
HETATM   34  C   UNL     1     -22.755  -2.130 -12.569  1.00  0.00     0.186 C 
HETATM   35  O   UNL     1     -23.911  -3.707 -14.344  1.00  0.00    -0.206 OA
HETATM   36  O   UNL     1     -25.178  -3.025 -12.272  1.00  0.00    -0.206 OA
ENDBRANCH  31  33
ENDBRANCH  27  31
ENDBRANCH  21  23
ENDBRANCH   3  21
TORSDOF 9
ENDMDL
MODEL 3
REMARK VINA RESULT:     -10.1      1.817      2.710
REMARK  9 active torsions:
REMARK  status: ('A' for Active; 'I' for Inactive)
REMARK    1  A    between atoms: C_2  and  C_3 
REMARK    2  A    between atoms: C_3  and  C_4 
REMARK    3  A    between atoms: C_7  and  C_8 
REMARK    4  A    between atoms: C_14  and  C_15 
REMARK    5  A    between atoms: C_16  and  C_17 
REMARK       I    between atoms: C_17  and  N_19 
REMARK    6  A    between atoms: N_19  and  C_20 
REMARK    7  A    between atoms: C_20  and  C_22 
REMARK    8  A    between atoms: C_26  and  N_27 
REMARK    9  A    between atoms: N_27  and  S_28 
ROOT
HETATM    1  C   UNL     1     -21.058  -5.823  -6.534  1.00  0.00     0.241 C 
HETATM    2  O   UNL     1     -20.748  -6.473  -7.524  1.00  0.00    -0.269 OA
HETATM    3  N   UNL     1     -21.018  -4.447  -6.462  1.00  0.00    -0.349 N 
HETATM    4  H   UNL     1     -21.334  -3.984  -5.623  1.00  0.00     0.163 HD
ENDROOT
BRANCH   1   5
HETATM    5  C   UNL     1     -21.529  -6.468  -5.277  1.00  0.00     0.075 C 
HETATM    6  C   UNL     1     -20.756  -6.434  -4.183  1.00  0.00     0.019 C 
BRANCH   6   7
HETATM    7  C   UNL     1     -21.119  -6.993  -2.859  1.00  0.00    -0.013 A 
HETATM    8  C   UNL     1     -20.593  -8.206  -2.389  1.00  0.00     0.019 A 
HETATM    9  N   UNL     1     -20.929  -8.732  -1.178  1.00  0.00    -0.355 N 
HETATM   10  C   UNL     1     -21.835  -8.088  -0.399  1.00  0.00     0.117 A 
ATOM     11  HN  UNL     1     -20.503  -9.603  -0.859  1.00  0.00     0.166 HD
HETATM   12  C   UNL     1     -22.428  -6.896  -0.812  1.00  0.00     0.035 A 
HETATM   13  C   UNL     1     -22.066  -6.357  -2.053  1.00  0.00     0.015 A 
BRANCH   8  14
HETATM   14  C   UNL     1     -19.576  -9.022  -3.163  1.00  0.00     0.057 C 
BRANCH  14  15
HETATM   15  C   UNL     1     -20.126 -10.367  -3.640  1.00  0.00     0.002 C 
HETATM   16  C   UNL     1     -21.295 -10.164  -4.595  1.00  0.00     0.005 C 
ENDBRANCH  14  15
ENDBRANCH   8  14
BRANCH  10  17
HETATM   17  C   UNL     1     -22.215  -8.677   0.956  1.00  0.00     0.432 C 
HETATM   18  F   UNL     1     -22.535 -10.005   0.925  1.00  0.00    -0.165 F 
HETATM   19  F   UNL     1     -21.209  -8.561   1.875  1.00  0.00    -0.165 F 
HETATM   20  F   UNL     1     -23.289  -8.051   1.518  1.00  0.00    -0.165 F 
ENDBRANCH  10  17
ENDBRANCH   6   7
ENDBRANCH   1   5
BRANCH   3  21
HETATM   21  C   UNL     1     -20.655  -3.627  -7.611  1.00  0.00     0.114 C 
HETATM   22  C   UNL     1     -19.162  -3.741  -7.911  1.00  0.00     0.037 C 
BRANCH  21  23
HETATM   23  C   UNL     1     -21.493  -3.947  -8.842  1.00  0.00    -0.030 A 
HETATM   24  C   UNL     1     -20.837  -4.113 -10.076  1.00  0.00     0.054 A 
HETATM   25  C   UNL     1     -21.545  -4.429 -11.238  1.00  0.00     0.147 A 
HETATM   26  F   UNL     1     -20.863  -4.545 -12.387  1.00  0.00    -0.204 F 
HETATM   27  C   UNL     1     -22.933  -4.548 -11.226  1.00  0.00     0.119 A 
HETATM   28  C   UNL     1     -23.588  -4.427  -9.999  1.00  0.00     0.147 A 
HETATM   29  F   UNL     1     -24.924  -4.527  -9.947  1.00  0.00    -0.204 F 
HETATM   30  C   UNL     1     -22.886  -4.128  -8.818  1.00  0.00     0.054 A 
BRANCH  27  31
HETATM   31  N   UNL     1     -23.669  -4.646 -12.457  1.00  0.00    -0.279 N 
HETATM   32  H   UNL     1     -23.330  -5.359 -13.104  1.00  0.00     0.179 HD
BRANCH  31  33
HETATM   33  S   UNL     1     -24.112  -3.271 -13.312  1.00  0.00     0.227 S 
HETATM   34  C   UNL     1     -22.957  -2.077 -12.674  1.00  0.00     0.186 C 
HETATM   35  O   UNL     1     -23.883  -3.457 -14.728  1.00  0.00    -0.206 OA
HETATM   36  O   UNL     1     -25.417  -2.911 -12.801  1.00  0.00    -0.206 OA
ENDBRANCH  31  33
ENDBRANCH  27  31
ENDBRANCH  21  23
ENDBRANCH   3  21
TORSDOF 9
ENDMDL
MODEL 4
REMARK VINA RESULT:      -9.5      1.964      3.030
REMARK  9 active torsions:
REMARK  status: ('A' for Active; 'I' for Inactive)
REMARK    1  A    between atoms: C_2  and  C_3 
REMARK    2  A    between atoms: C_3  and  C_4 
REMARK    3  A    between atoms: C_7  and  C_8 
REMARK    4  A    between atoms: C_14  and  C_15 
REMARK    5  A    between atoms: C_16  and  C_17 
REMARK       I    between atoms: C_17  and  N_19 
REMARK    6  A    between atoms: N_19  and  C_20 
REMARK    7  A    between atoms: C_20  and  C_22 
REMARK    8  A    between atoms: C_26  and  N_27 
REMARK    9  A    between atoms: N_27  and  S_28 
ROOT
HETATM    1  C   UNL     1     -20.363  -5.949  -6.612  1.00  0.00     0.241 C 
HETATM    2  O   UNL     1     -19.896  -6.501  -7.600  1.00  0.00    -0.269 OA
HETATM    3  N   UNL     1     -20.504  -4.586  -6.474  1.00  0.00    -0.349 N 
HETATM    4  H   UNL     1     -20.941  -4.212  -5.645  1.00  0.00     0.163 HD
ENDROOT
BRANCH   1   5
HETATM    5  C   UNL     1     -20.845  -6.716  -5.429  1.00  0.00     0.075 C 
HETATM    6  C   UNL     1     -20.631  -6.239  -4.195  1.00  0.00     0.019 C 
BRANCH   6   7
HETATM    7  C   UNL     1     -21.095  -6.874  -2.939  1.00  0.00    -0.013 A 
HETATM    8  C   UNL     1     -20.628  -8.128  -2.517  1.00  0.00     0.019 A 
HETATM    9  N   UNL     1     -21.056  -8.723  -1.369  1.00  0.00    -0.355 N 
HETATM   10  C   UNL     1     -21.999  -8.108  -0.610  1.00  0.00     0.117 A 
ATOM     11  HN  UNL     1     -20.670  -9.623  -1.081  1.00  0.00     0.166 HD
HETATM   12  C   UNL     1     -22.537  -6.877  -0.981  1.00  0.00     0.035 A 
HETATM   13  C   UNL     1     -22.081  -6.268  -2.156  1.00  0.00     0.015 A 
BRANCH   8  14
HETATM   14  C   UNL     1     -19.578  -8.916  -3.275  1.00  0.00     0.057 C 
BRANCH  14  15
HETATM   15  C   UNL     1     -19.352 -10.316  -2.701  1.00  0.00     0.002 C 
HETATM   16  C   UNL     1     -17.881 -10.538  -2.380  1.00  0.00     0.005 C 
ENDBRANCH  14  15
ENDBRANCH   8  14
BRANCH  10  17
HETATM   17  C   UNL     1     -22.482  -8.775   0.675  1.00  0.00     0.432 C 
HETATM   18  F   UNL     1     -22.052 -10.060   0.840  1.00  0.00    -0.165 F 
HETATM   19  F   UNL     1     -22.076  -8.102   1.794  1.00  0.00    -0.165 F 
HETATM   20  F   UNL     1     -23.843  -8.826   0.760  1.00  0.00    -0.165 F 
ENDBRANCH  10  17
ENDBRANCH   6   7
ENDBRANCH   1   5
BRANCH   3  21
HETATM   21  C   UNL     1     -20.160  -3.664  -7.550  1.00  0.00     0.114 C 
HETATM   22  C   UNL     1     -18.671  -3.748  -7.881  1.00  0.00     0.037 C 
BRANCH  21  23
HETATM   23  C   UNL     1     -21.016  -3.874  -8.791  1.00  0.00    -0.030 A 
HETATM   24  C   UNL     1     -22.415  -3.789  -8.664  1.00  0.00     0.054 A 
HETATM   25  C   UNL     1     -23.256  -3.951  -9.768  1.00  0.00     0.147 A 
HETATM   26  F   UNL     1     -24.581  -3.886  -9.574  1.00  0.00    -0.204 F 
HETATM   27  C   UNL     1     -22.741  -4.247 -11.028  1.00  0.00     0.119 A 
HETATM   28  C   UNL     1     -21.353  -4.291 -11.172  1.00  0.00     0.147 A 
HETATM   29  F   UNL     1     -20.819  -4.580 -12.368  1.00  0.00    -0.204 F 
HETATM   30  C   UNL     1     -20.495  -4.111 -10.074  1.00  0.00     0.054 A 
BRANCH  27  31
HETATM   31  N   UNL     1     -23.615  -4.634 -12.102  1.00  0.00    -0.279 N 
HETATM   32  H   UNL     1     -23.342  -5.488 -12.591  1.00  0.00     0.179 HD
BRANCH  31  33
HETATM   33  S   UNL     1     -24.180  -3.504 -13.207  1.00  0.00     0.227 S 
HETATM   34  C   UNL     1     -22.974  -2.208 -13.029  1.00  0.00     0.186 C 
HETATM   35  O   UNL     1     -24.123  -4.036 -14.551  1.00  0.00    -0.206 OA
HETATM   36  O   UNL     1     -25.418  -3.009 -12.645  1.00  0.00    -0.206 OA
ENDBRANCH  31  33
ENDBRANCH  27  31
ENDBRANCH  21  23
ENDBRANCH   3  21
TORSDOF 9
ENDMDL
MODEL 5
REMARK VINA RESULT:      -9.5      1.111      2.849
REMARK  9 active torsions:
REMARK  status: ('A' for Active; 'I' for Inactive)
REMARK    1  A    between atoms: C_2  and  C_3 
REMARK    2  A    between atoms: C_3  and  C_4 
REMARK    3  A    between atoms: C_7  and  C_8 
REMARK    4  A    between atoms: C_14  and  C_15 
REMARK    5  A    between atoms: C_16  and  C_17 
REMARK       I    between atoms: C_17  and  N_19 
REMARK    6  A    between atoms: N_19  and  C_20 
REMARK    7  A    between atoms: C_20  and  C_22 
REMARK    8  A    between atoms: C_26  and  N_27 
REMARK    9  A    between atoms: N_27  and  S_28 
ROOT
HETATM    1  C   UNL     1     -20.731  -6.419  -6.071  1.00  0.00     0.241 C 
HETATM    2  O   UNL     1     -19.849  -6.928  -6.752  1.00  0.00    -0.269 OA
HETATM    3  N   UNL     1     -21.126  -5.102  -6.164  1.00  0.00    -0.349 N 
HETATM    4  H   UNL     1     -21.892  -4.771  -5.597  1.00  0.00     0.163 HD
ENDROOT
BRANCH   1   5
HETATM    5  C   UNL     1     -21.490  -7.193  -5.050  1.00  0.00     0.075 C 
HETATM    6  C   UNL     1     -20.887  -8.191  -4.388  1.00  0.00     0.019 C 
BRANCH   6   7
HETATM    7  C   UNL     1     -21.508  -9.009  -3.320  1.00  0.00    -0.013 A 
HETATM    8  C   UNL     1     -21.981 -10.309  -3.552  1.00  0.00     0.019 A 
HETATM    9  N   UNL     1     -22.562 -11.065  -2.579  1.00  0.00    -0.355 N 
HETATM   10  C   UNL     1     -22.730 -10.539  -1.338  1.00  0.00     0.117 A 
ATOM     11  HN  UNL     1     -22.867 -12.017  -2.780  1.00  0.00     0.166 HD
HETATM   12  C   UNL     1     -22.317  -9.242  -1.039  1.00  0.00     0.035 A 
HETATM   13  C   UNL     1     -21.711  -8.478  -2.043  1.00  0.00     0.015 A 
BRANCH   8  14
HETATM   14  C   UNL     1     -21.854 -11.008  -4.892  1.00  0.00     0.057 C 
BRANCH  14  15
HETATM   15  C   UNL     1     -22.615 -12.333  -4.949  1.00  0.00     0.002 C 
HETATM   16  C   UNL     1     -21.903 -13.327  -5.855  1.00  0.00     0.005 C 
ENDBRANCH  14  15
ENDBRANCH   8  14
BRANCH  10  17
HETATM   17  C   UNL     1     -23.383 -11.383  -0.247  1.00  0.00     0.432 C 
HETATM   18  F   UNL     1     -24.440 -10.781   0.375  1.00  0.00    -0.165 F 
HETATM   19  F   UNL     1     -23.863 -12.571  -0.725  1.00  0.00    -0.165 F 
HETATM   20  F   UNL     1     -22.512 -11.720   0.747  1.00  0.00    -0.165 F 
ENDBRANCH  10  17
ENDBRANCH   6   7
ENDBRANCH   1   5
BRANCH   3  21
HETATM   21  C   UNL     1     -20.556  -4.197  -7.155  1.00  0.00     0.114 C 
HETATM   22  C   UNL     1     -19.057  -4.443  -7.318  1.00  0.00     0.037 C 
BRANCH  21  23
HETATM   23  C   UNL     1     -21.278  -4.270  -8.493  1.00  0.00    -0.030 A 
HETATM   24  C   UNL     1     -22.685  -4.252  -8.498  1.00  0.00     0.054 A 
HETATM   25  C   UNL     1     -23.408  -4.296  -9.694  1.00  0.00     0.147 A 
HETATM   26  F   UNL     1     -24.747  -4.303  -9.628  1.00  0.00    -0.204 F 
HETATM   27  C   UNL     1     -22.761  -4.404 -10.923  1.00  0.00     0.119 A 
HETATM   28  C   UNL     1     -21.365  -4.380 -10.930  1.00  0.00     0.147 A 
HETATM   29  F   UNL     1     -20.706  -4.490 -12.093  1.00  0.00    -0.204 F 
HETATM   30  C   UNL     1     -20.625  -4.317  -9.737  1.00  0.00     0.054 A 
BRANCH  27  31
HETATM   31  N   UNL     1     -23.509  -4.676 -12.120  1.00  0.00    -0.279 N 
HETATM   32  H   UNL     1     -23.119  -5.411 -12.712  1.00  0.00     0.179 HD
BRANCH  31  33
HETATM   33  S   UNL     1     -24.091  -3.427 -13.078  1.00  0.00     0.227 S 
HETATM   34  C   UNL     1     -22.889  -2.154 -12.761  1.00  0.00     0.186 C 
HETATM   35  O   UNL     1     -24.048  -3.796 -14.476  1.00  0.00    -0.206 OA
HETATM   36  O   UNL     1     -25.325  -3.009 -12.448  1.00  0.00    -0.206 OA
ENDBRANCH  31  33
ENDBRANCH  27  31
ENDBRANCH  21  23
ENDBRANCH   3  21
TORSDOF 9
ENDMDL
MODEL 6
REMARK VINA RESULT:      -8.8      4.048     10.870
REMARK  9 active torsions:
REMARK  status: ('A' for Active; 'I' for Inactive)
REMARK    1  A    between atoms: C_2  and  C_3 
REMARK    2  A    between atoms: C_3  and  C_4 
REMARK    3  A    between atoms: C_7  and  C_8 
REMARK    4  A    between atoms: C_14  and  C_15 
REMARK    5  A    between atoms: C_16  and  C_17 
REMARK       I    between atoms: C_17  and  N_19 
REMARK    6  A    between atoms: N_19  and  C_20 
REMARK    7  A    between atoms: C_20  and  C_22 
REMARK    8  A    between atoms: C_26  and  N_27 
REMARK    9  A    between atoms: N_27  and  S_28 
ROOT
HETATM    1  C   UNL     1     -21.173  -5.755  -4.990  1.00  0.00     0.241 C 
HETATM    2  O   UNL     1     -20.347  -4.946  -4.588  1.00  0.00    -0.269 OA
HETATM    3  N   UNL     1     -21.685  -6.788  -4.234  1.00  0.00    -0.349 N 
HETATM    4  H   UNL     1     -22.397  -7.385  -4.626  1.00  0.00     0.163 HD
ENDROOT
BRANCH   1   5
HETATM    5  C   UNL     1     -21.729  -5.701  -6.371  1.00  0.00     0.075 C 
HETATM    6  C   UNL     1     -21.930  -4.513  -6.960  1.00  0.00     0.019 C 
BRANCH   6   7
HETATM    7  C   UNL     1     -22.431  -4.316  -8.340  1.00  0.00    -0.013 A 
HETATM    8  C   UNL     1     -21.582  -4.349  -9.457  1.00  0.00     0.019 A 
HETATM    9  N   UNL     1     -22.033  -4.159 -10.728  1.00  0.00    -0.355 N 
HETATM   10  C   UNL     1     -23.347  -3.889 -10.936  1.00  0.00     0.117 A 
ATOM     11  HN  UNL     1     -21.389  -4.219 -11.517  1.00  0.00     0.166 HD
HETATM   12  C   UNL     1     -24.247  -3.806  -9.875  1.00  0.00     0.035 A 
HETATM   13  C   UNL     1     -23.775  -4.015  -8.574  1.00  0.00     0.015 A 
BRANCH   8  14
HETATM   14  C   UNL     1     -20.097  -4.638  -9.358  1.00  0.00     0.057 C 
BRANCH  14  15
HETATM   15  C   UNL     1     -19.354  -3.646  -8.462  1.00  0.00     0.002 C 
HETATM   16  C   UNL     1     -18.452  -4.378  -7.478  1.00  0.00     0.005 C 
ENDBRANCH  14  15
ENDBRANCH   8  14
BRANCH  10  17
HETATM   17  C   UNL     1     -23.854  -3.673 -12.360  1.00  0.00     0.432 C 
HETATM   18  F   UNL     1     -24.978  -2.902 -12.448  1.00  0.00    -0.165 F 
HETATM   19  F   UNL     1     -22.924  -3.063 -13.156  1.00  0.00    -0.165 F 
HETATM   20  F   UNL     1     -24.157  -4.843 -12.992  1.00  0.00    -0.165 F 
ENDBRANCH  10  17
ENDBRANCH   6   7
ENDBRANCH   1   5
BRANCH   3  21
HETATM   21  C   UNL     1     -21.324  -6.968  -2.833  1.00  0.00     0.114 C 
HETATM   22  C   UNL     1     -22.163  -6.062  -1.935  1.00  0.00     0.037 C 
BRANCH  21  23
HETATM   23  C   UNL     1     -21.414  -8.422  -2.393  1.00  0.00    -0.030 A 
HETATM   24  C   UNL     1     -21.868  -9.378  -3.320  1.00  0.00     0.054 A 
HETATM   25  C   UNL     1     -21.954 -10.732  -2.985  1.00  0.00     0.147 A 
HETATM   26  F   UNL     1     -22.422 -11.587  -3.907  1.00  0.00    -0.204 F 
HETATM   27  C   UNL     1     -21.635 -11.179  -1.705  1.00  0.00     0.119 A 
HETATM   28  C   UNL     1     -21.144 -10.244  -0.791  1.00  0.00     0.147 A 
HETATM   29  F   UNL     1     -20.832 -10.635   0.454  1.00  0.00    -0.204 F 
HETATM   30  C   UNL     1     -21.033  -8.883  -1.121  1.00  0.00     0.054 A 
BRANCH  27  31
HETATM   31  N   UNL     1     -21.941 -12.525  -1.304  1.00  0.00    -0.279 N 
HETATM   32  H   UNL     1     -21.764 -13.236  -2.015  1.00  0.00     0.179 HD
BRANCH  31  33
HETATM   33  S   UNL     1     -23.364 -12.882  -0.488  1.00  0.00     0.227 S 
HETATM   34  C   UNL     1     -23.957 -14.279  -1.416  1.00  0.00     0.186 C 
HETATM   35  O   UNL     1     -23.082 -13.287   0.871  1.00  0.00    -0.206 OA
HETATM   36  O   UNL     1     -24.253 -11.776  -0.775  1.00  0.00    -0.206 OA
ENDBRANCH  31  33
ENDBRANCH  27  31
ENDBRANCH  21  23
ENDBRANCH   3  21
TORSDOF 9
ENDMDL
MODEL 7
REMARK VINA RESULT:      -8.8      4.755     10.278
REMARK  9 active torsions:
REMARK  status: ('A' for Active; 'I' for Inactive)
REMARK    1  A    between atoms: C_2  and  C_3 
REMARK    2  A    between atoms: C_3  and  C_4 
REMARK    3  A    between atoms: C_7  and  C_8 
REMARK    4  A    between atoms: C_14  and  C_15 
REMARK    5  A    between atoms: C_16  and  C_17 
REMARK       I    between atoms: C_17  and  N_19 
REMARK    6  A    between atoms: N_19  and  C_20 
REMARK    7  A    between atoms: C_20  and  C_22 
REMARK    8  A    between atoms: C_26  and  N_27 
REMARK    9  A    between atoms: N_27  and  S_28 
ROOT
HETATM    1  C   UNL     1     -21.907  -6.578  -4.529  1.00  0.00     0.241 C 
HETATM    2  O   UNL     1     -21.980  -5.913  -3.503  1.00  0.00    -0.269 OA
HETATM    3  N   UNL     1     -21.290  -7.806  -4.620  1.00  0.00    -0.349 N 
HETATM    4  H   UNL     1     -21.313  -8.311  -5.493  1.00  0.00     0.163 HD
ENDROOT
BRANCH   1   5
HETATM    5  C   UNL     1     -22.502  -6.118  -5.815  1.00  0.00     0.075 C 
HETATM    6  C   UNL     1     -21.852  -5.213  -6.562  1.00  0.00     0.019 C 
BRANCH   6   7
HETATM    7  C   UNL     1     -22.305  -4.705  -7.878  1.00  0.00    -0.013 A 
HETATM    8  C   UNL     1     -21.428  -4.550  -8.962  1.00  0.00     0.019 A 
HETATM    9  N   UNL     1     -21.833  -4.075 -10.173  1.00  0.00    -0.355 N 
HETATM   10  C   UNL     1     -23.126  -3.697 -10.342  1.00  0.00     0.117 A 
ATOM     11  HN  UNL     1     -21.171  -4.004 -10.946  1.00  0.00     0.166 HD
HETATM   12  C   UNL     1     -24.050  -3.789  -9.302  1.00  0.00     0.035 A 
HETATM   13  C   UNL     1     -23.626  -4.290  -8.066  1.00  0.00     0.015 A 
BRANCH   8  14
HETATM   14  C   UNL     1     -19.962  -4.933  -8.901  1.00  0.00     0.057 C 
BRANCH  14  15
HETATM   15  C   UNL     1     -19.090  -3.858  -8.253  1.00  0.00     0.002 C 
HETATM   16  C   UNL     1     -18.363  -4.412  -7.036  1.00  0.00     0.005 C 
ENDBRANCH  14  15
ENDBRANCH   8  14
BRANCH  10  17
HETATM   17  C   UNL     1     -23.582  -3.161 -11.697  1.00  0.00     0.432 C 
HETATM   18  F   UNL     1     -22.964  -2.007 -12.084  1.00  0.00    -0.165 F 
HETATM   19  F   UNL     1     -23.364  -4.054 -12.709  1.00  0.00    -0.165 F 
HETATM   20  F   UNL     1     -24.919  -2.895 -11.733  1.00  0.00    -0.165 F 
ENDBRANCH  10  17
ENDBRANCH   6   7
ENDBRANCH   1   5
BRANCH   3  21
HETATM   21  C   UNL     1     -20.711  -8.464  -3.455  1.00  0.00     0.114 C 
HETATM   22  C   UNL     1     -21.632  -9.569  -2.941  1.00  0.00     0.037 C 
BRANCH  21  23
HETATM   23  C   UNL     1     -19.309  -8.993  -3.722  1.00  0.00    -0.030 A 
HETATM   24  C   UNL     1     -18.892  -9.145  -5.058  1.00  0.00     0.054 A 
HETATM   25  C   UNL     1     -17.610  -9.605  -5.371  1.00  0.00     0.147 A 
HETATM   26  F   UNL     1     -17.286  -9.753  -6.664  1.00  0.00    -0.204 F 
HETATM   27  C   UNL     1     -16.713  -9.973  -4.372  1.00  0.00     0.119 A 
HETATM   28  C   UNL     1     -17.102  -9.786  -3.044  1.00  0.00     0.147 A 
HETATM   29  F   UNL     1     -16.269 -10.135  -2.053  1.00  0.00    -0.204 F 
HETATM   30  C   UNL     1     -18.381  -9.306  -2.714  1.00  0.00     0.054 A 
BRANCH  27  31
HETATM   31  N   UNL     1     -15.491 -10.655  -4.702  1.00  0.00    -0.279 N 
HETATM   32  H   UNL     1     -14.888 -10.160  -5.360  1.00  0.00     0.179 HD
BRANCH  31  33
HETATM   33  S   UNL     1     -15.484 -12.297  -5.050  1.00  0.00     0.227 S 
HETATM   34  C   UNL     1     -13.799 -12.726  -4.673  1.00  0.00     0.186 C 
HETATM   35  O   UNL     1     -16.375 -13.008  -4.160  1.00  0.00    -0.206 OA
HETATM   36  O   UNL     1     -15.630 -12.381  -6.487  1.00  0.00    -0.206 OA
ENDBRANCH  31  33
ENDBRANCH  27  31
ENDBRANCH  21  23
ENDBRANCH   3  21
TORSDOF 9
ENDMDL
MODEL 8
REMARK VINA RESULT:      -8.5      1.899      2.286
REMARK  9 active torsions:
REMARK  status: ('A' for Active; 'I' for Inactive)
REMARK    1  A    between atoms: C_2  and  C_3 
REMARK    2  A    between atoms: C_3  and  C_4 
REMARK    3  A    between atoms: C_7  and  C_8 
REMARK    4  A    between atoms: C_14  and  C_15 
REMARK    5  A    between atoms: C_16  and  C_17 
REMARK       I    between atoms: C_17  and  N_19 
REMARK    6  A    between atoms: N_19  and  C_20 
REMARK    7  A    between atoms: C_20  and  C_22 
REMARK    8  A    between atoms: C_26  and  N_27 
REMARK    9  A    between atoms: N_27  and  S_28 
ROOT
HETATM    1  C   UNL     1     -21.179  -6.522  -5.174  1.00  0.00     0.241 C 
HETATM    2  O   UNL     1     -21.592  -5.689  -4.377  1.00  0.00    -0.269 OA
HETATM    3  N   UNL     1     -20.502  -6.220  -6.336  1.00  0.00    -0.349 N 
HETATM    4  H   UNL     1     -20.155  -6.967  -6.918  1.00  0.00     0.163 HD
ENDROOT
BRANCH   1   5
HETATM    5  C   UNL     1     -21.364  -7.984  -4.961  1.00  0.00     0.075 C 
HETATM    6  C   UNL     1     -20.590  -8.630  -4.077  1.00  0.00     0.019 C 
BRANCH   6   7
HETATM    7  C   UNL     1     -20.697 -10.068  -3.735  1.00  0.00    -0.013 A 
HETATM    8  C   UNL     1     -21.388 -10.517  -2.599  1.00  0.00     0.019 A 
HETATM    9  N   UNL     1     -21.484 -11.836  -2.271  1.00  0.00    -0.355 N 
HETATM   10  C   UNL     1     -20.860 -12.762  -3.043  1.00  0.00     0.117 A 
ATOM     11  HN  UNL     1     -22.020 -12.125  -1.453  1.00  0.00     0.166 HD
HETATM   12  C   UNL     1     -20.126 -12.391  -4.168  1.00  0.00     0.035 A 
HETATM   13  C   UNL     1     -20.043 -11.035  -4.503  1.00  0.00     0.015 A 
BRANCH   8  14
HETATM   14  C   UNL     1     -22.124  -9.585  -1.657  1.00  0.00     0.057 C 
BRANCH  14  15
HETATM   15  C   UNL     1     -21.246  -9.076  -0.513  1.00  0.00     0.002 C 
HETATM   16  C   UNL     1     -21.844  -7.824   0.113  1.00  0.00     0.005 C 
ENDBRANCH  14  15
ENDBRANCH   8  14
BRANCH  10  17
HETATM   17  C   UNL     1     -20.963 -14.240  -2.676  1.00  0.00     0.432 C 
HETATM   18  F   UNL     1     -21.724 -14.495  -1.571  1.00  0.00    -0.165 F 
HETATM   19  F   UNL     1     -21.509 -14.989  -3.681  1.00  0.00    -0.165 F 
HETATM   20  F   UNL     1     -19.747 -14.804  -2.427  1.00  0.00    -0.165 F 
ENDBRANCH  10  17
ENDBRANCH   6   7
ENDBRANCH   1   5
BRANCH   3  21
HETATM   21  C   UNL     1     -20.155  -4.849  -6.690  1.00  0.00     0.114 C 
HETATM   22  C   UNL     1     -18.644  -4.695  -6.853  1.00  0.00     0.037 C 
BRANCH  21  23
HETATM   23  C   UNL     1     -20.898  -4.362  -7.926  1.00  0.00    -0.030 A 
HETATM   24  C   UNL     1     -20.203  -4.307  -9.149  1.00  0.00     0.054 A 
HETATM   25  C   UNL     1     -20.833  -3.890 -10.325  1.00  0.00     0.147 A 
HETATM   26  F   UNL     1     -20.106  -3.835 -11.450  1.00  0.00    -0.204 F 
HETATM   27  C   UNL     1     -22.161  -3.470 -10.320  1.00  0.00     0.119 A 
HETATM   28  C   UNL     1     -22.870  -3.561  -9.121  1.00  0.00     0.147 A 
HETATM   29  F   UNL     1     -24.149  -3.158  -9.075  1.00  0.00    -0.204 F 
HETATM   30  C   UNL     1     -22.255  -3.997  -7.935  1.00  0.00     0.054 A 
BRANCH  27  31
HETATM   31  N   UNL     1     -22.729  -2.832 -11.477  1.00  0.00    -0.279 N 
HETATM   32  H   UNL     1     -23.022  -1.864 -11.333  1.00  0.00     0.179 HD
BRANCH  31  33
HETATM   33  S   UNL     1     -23.853  -3.627 -12.437  1.00  0.00     0.227 S 
HETATM   34  C   UNL     1     -23.372  -3.082 -14.061  1.00  0.00     0.186 C 
HETATM   35  O   UNL     1     -23.682  -5.060 -12.338  1.00  0.00    -0.206 OA
HETATM   36  O   UNL     1     -25.121  -2.997 -12.138  1.00  0.00    -0.206 OA
ENDBRANCH  31  33
ENDBRANCH  27  31
ENDBRANCH  21  23
ENDBRANCH   3  21
TORSDOF 9
ENDMDL
MODEL 9
REMARK VINA RESULT:      -8.4     11.743     14.850
REMARK  9 active torsions:
REMARK  status: ('A' for Active; 'I' for Inactive)
REMARK    1  A    between atoms: C_2  and  C_3 
REMARK    2  A    between atoms: C_3  and  C_4 
REMARK    3  A    between atoms: C_7  and  C_8 
REMARK    4  A    between atoms: C_14  and  C_15 
REMARK    5  A    between atoms: C_16  and  C_17 
REMARK       I    between atoms: C_17  and  N_19 
REMARK    6  A    between atoms: N_19  and  C_20 
REMARK    7  A    between atoms: C_20  and  C_22 
REMARK    8  A    between atoms: C_26  and  N_27 
REMARK    9  A    between atoms: N_27  and  S_28 
ROOT
HETATM    1  C   UNL     1     -34.243  -4.551 -15.153  1.00  0.00     0.241 C 
HETATM    2  O   UNL     1     -35.004  -5.220 -15.840  1.00  0.00    -0.269 OA
HETATM    3  N   UNL     1     -32.948  -4.237 -15.504  1.00  0.00    -0.349 N 
HETATM    4  H   UNL     1     -32.399  -3.642 -14.902  1.00  0.00     0.163 HD
ENDROOT
BRANCH   1   5
HETATM    5  C   UNL     1     -34.652  -3.987 -13.836  1.00  0.00     0.075 C 
HETATM    6  C   UNL     1     -34.707  -2.657 -13.671  1.00  0.00     0.019 C 
BRANCH   6   7
HETATM    7  C   UNL     1     -35.140  -1.965 -12.434  1.00  0.00    -0.013 A 
HETATM    8  C   UNL     1     -34.580  -2.252 -11.181  1.00  0.00     0.019 A 
HETATM    9  N   UNL     1     -34.978  -1.628 -10.037  1.00  0.00    -0.355 N 
HETATM   10  C   UNL     1     -35.981  -0.715 -10.091  1.00  0.00     0.117 A 
ATOM     11  HN  UNL     1     -34.526  -1.844  -9.149  1.00  0.00     0.166 HD
HETATM   12  C   UNL     1     -36.611  -0.400 -11.294  1.00  0.00     0.035 A 
HETATM   13  C   UNL     1     -36.185  -1.039 -12.465  1.00  0.00     0.015 A 
BRANCH   8  14
HETATM   14  C   UNL     1     -33.456  -3.252 -10.987  1.00  0.00     0.057 C 
BRANCH  14  15
HETATM   15  C   UNL     1     -33.941  -4.602 -10.457  1.00  0.00     0.002 C 
HETATM   16  C   UNL     1     -33.257  -5.747 -11.189  1.00  0.00     0.005 C 
ENDBRANCH  14  15
ENDBRANCH   8  14
BRANCH  10  17
HETATM   17  C   UNL     1     -36.431  -0.016  -8.811  1.00  0.00     0.432 C 
HETATM   18  F   UNL     1     -37.537  -0.565  -8.227  1.00  0.00    -0.165 F 
HETATM   19  F   UNL     1     -35.462  -0.023  -7.846  1.00  0.00    -0.165 F 
HETATM   20  F   UNL     1     -36.732   1.299  -9.009  1.00  0.00    -0.165 F 
ENDBRANCH  10  17
ENDBRANCH   6   7
ENDBRANCH   1   5
BRANCH   3  21
HETATM   21  C   UNL     1     -32.382  -4.633 -16.789  1.00  0.00     0.114 C 
HETATM   22  C   UNL     1     -32.187  -3.418 -17.693  1.00  0.00     0.037 C 
BRANCH  21  23
HETATM   23  C   UNL     1     -31.090  -5.423 -16.636  1.00  0.00    -0.030 A 
HETATM   24  C   UNL     1     -30.341  -5.263 -15.455  1.00  0.00     0.054 A 
HETATM   25  C   UNL     1     -29.157  -5.974 -15.244  1.00  0.00     0.147 A 
HETATM   26  F   UNL     1     -28.476  -5.755 -14.110  1.00  0.00    -0.204 F 
HETATM   27  C   UNL     1     -28.652  -6.836 -16.215  1.00  0.00     0.119 A 
HETATM   28  C   UNL     1     -29.410  -7.033 -17.371  1.00  0.00     0.147 A 
HETATM   29  F   UNL     1     -28.953  -7.849 -18.332  1.00  0.00    -0.204 F 
HETATM   30  C   UNL     1     -30.612  -6.339 -17.588  1.00  0.00     0.054 A 
BRANCH  27  31
HETATM   31  N   UNL     1     -27.329  -7.385 -16.088  1.00  0.00    -0.279 N 
HETATM   32  H   UNL     1     -27.143  -7.856 -15.201  1.00  0.00     0.179 HD
BRANCH  31  33
HETATM   33  S   UNL     1     -25.979  -6.504 -16.556  1.00  0.00     0.227 S 
HETATM   34  C   UNL     1     -24.687  -7.711 -16.352  1.00  0.00     0.186 C 
HETATM   35  O   UNL     1     -26.076  -6.130 -17.950  1.00  0.00    -0.206 OA
HETATM   36  O   UNL     1     -25.796  -5.511 -15.520  1.00  0.00    -0.206 OA
ENDBRANCH  31  33
ENDBRANCH  27  31
ENDBRANCH  21  23
ENDBRANCH   3  21
TORSDOF 9
ENDMDL
