REMARK  6 active torsions:
REMARK  status: ('A' for Active; 'I' for Inactive)
REMARK    1  A    between atoms: N_1  and  C_2 
REMARK    2  A    between atoms: C_2  and  C_3 
REMARK    3  A    between atoms: C_3  and  O_4 
REMARK    4  A    between atoms: O_4  and  B_5 
REMARK    5  A    between atoms: B_5  and  C_6 
REMARK    6  A    between atoms: B_5  and  C_12 
ROOT
HETATM    1  B   UNL     1       4.887  -2.768   0.810  1.00  0.00     0.402 B 
ENDROOT
BRANCH   1   2
HETATM    2  O   UNL     1       4.358  -1.447   0.393  1.00  0.00    -0.442 OA
BRANCH   2   3
HETATM    3  C   UNL     1       3.576  -0.894   1.431  1.00  0.00     0.173 C 
BRANCH   3   4
HETATM    4  C   UNL     1       3.141   0.521   1.039  1.00  0.00     0.290 C 
BRANCH   4   5
HETATM    5  N   UNL     1       2.279   1.092   2.069  1.00  0.00     0.080 N 
HETATM    6  H   UNL     1       1.973   2.043   1.761  1.00  0.00     0.312 HD
HETATM    7  H   UNL     1       2.825   1.201   2.954  1.00  0.00     0.312 HD
ENDBRANCH   4   5
ENDBRANCH   3   4
ENDBRANCH   2   3
ENDBRANCH   1   2
BRANCH   1   8
HETATM    8  C   UNL     1       3.913  -4.002   1.040  1.00  0.00    -0.060 A 
HETATM    9  C   UNL     1       2.654  -4.081   0.423  1.00  0.00    -0.002 A 
HETATM   10  C   UNL     1       1.822  -5.182   0.663  1.00  0.00    -0.000 A 
HETATM   11  C   UNL     1       2.229  -6.194   1.539  1.00  0.00     0.000 A 
HETATM   12  C   UNL     1       3.464  -6.114   2.170  1.00  0.00    -0.000 A 
HETATM   13  C   UNL     1       4.303  -5.027   1.925  1.00  0.00    -0.002 A 
ENDBRANCH   1   8
BRANCH   1  14
HETATM   14  C   UNL     1       6.448  -2.966   1.010  1.00  0.00    -0.060 A 
HETATM   15  C   UNL     1       7.273  -1.923   1.460  1.00  0.00    -0.002 A 
HETATM   16  C   UNL     1       8.643  -2.150   1.652  1.00  0.00    -0.000 A 
HETATM   17  C   UNL     1       9.201  -3.398   1.369  1.00  0.00     0.000 A 
HETATM   18  C   UNL     1       8.394  -4.429   0.892  1.00  0.00    -0.000 A 
HETATM   19  C   UNL     1       7.028  -4.219   0.720  1.00  0.00    -0.002 A 
ENDBRANCH   1  14
TORSDOF 6
