REMARK  3 active torsions:
REMARK  status: ('A' for Active; 'I' for Inactive)
REMARK    1  A    between atoms: C_2  and  C_5 
REMARK    2  A    between atoms: C_13  and  N_14 
REMARK       I    between atoms: N_14  and  C_15 
REMARK       I    between atoms: C_15  and  N_17 
REMARK    3  A    between atoms: N_17  and  C_18 
ROOT
HETATM    1  N   UNL     1       5.265   5.119  -3.339  1.00  0.00    -0.334 N 
HETATM    2  C   UNL     1       5.604   6.056  -4.293  1.00  0.00     0.321 C 
HETATM    3  O   UNL     1       4.768   6.469  -5.091  1.00  0.00    -0.247 OA
HETATM    4  N   UNL     1       6.940   6.397  -4.260  1.00  0.00    -0.308 N 
HETATM    5  H   UNL     1       5.822   5.042  -2.501  1.00  0.00     0.165 HD
HETATM    6  H   UNL     1       7.519   5.817  -3.676  1.00  0.00     0.170 HD
ENDROOT
BRANCH   1   7
HETATM    7  C   UNL     1       3.883   4.681  -3.276  1.00  0.00     0.120 C 
HETATM    8  C   UNL     1       3.701   3.406  -2.508  1.00  0.00    -0.029 A 
HETATM    9  C   UNL     1       3.947   2.112  -2.928  1.00  0.00     0.010 A 
HETATM   10  C   UNL     1       3.128   3.648  -1.259  1.00  0.00    -0.049 A 
HETATM   11  C   UNL     1       3.579   1.056  -2.084  1.00  0.00     0.008 A 
HETATM   12  C   UNL     1       2.982   1.278  -0.815  1.00  0.00    -0.050 A 
HETATM   13  C   UNL     1       2.783   2.609  -0.407  1.00  0.00     0.015 A 
HETATM   14  C   UNL     1       2.941   5.115  -1.031  1.00  0.00     0.041 C 
HETATM   15  C   UNL     1       2.975   5.640  -2.473  1.00  0.00     0.035 C 
BRANCH  12  16
HETATM   16  C   UNL     1       2.544   0.084   0.056  1.00  0.00    -0.024 C 
HETATM   17  C   UNL     1       3.758  -0.818   0.362  1.00  0.00     0.019 C 
HETATM   18  C   UNL     1       1.473  -0.743  -0.688  1.00  0.00     0.019 C 
HETATM   19  C   UNL     1       1.931   0.504   1.412  1.00  0.00     0.019 C 
ENDBRANCH  12  16
ENDBRANCH   1   7
BRANCH   4  20
HETATM   20  C   UNL     1       7.596   7.307  -5.146  1.00  0.00     0.047 A 
HETATM   21  C   UNL     1       6.848   8.193  -5.941  1.00  0.00     0.030 A 
HETATM   22  C   UNL     1       7.456   9.058  -6.846  1.00  0.00     0.003 A 
HETATM   23  C   UNL     1       8.837   9.073  -6.961  1.00  0.00     0.014 A 
HETATM   24  C   UNL     1       9.621   8.227  -6.166  1.00  0.00    -0.008 A 
HETATM   25  C   UNL     1      11.012   8.245  -6.281  1.00  0.00     0.100 A 
HETATM   26  C   UNL     1       9.022   7.331  -5.241  1.00  0.00     0.004 A 
HETATM   27  N   UNL     1      11.853   7.464  -5.572  1.00  0.00    -0.374 N 
HETATM   28  C   UNL     1      11.280   6.616  -4.701  1.00  0.00     0.088 A 
ATOM     29  HN  UNL     1      12.865   7.514  -5.690  1.00  0.00     0.164 HD
HETATM   30  C   UNL     1       9.908   6.515  -4.501  1.00  0.00     0.031 A 
ENDBRANCH   4  20
TORSDOF 3
