MODEL 1
REMARK VINA RESULT:      -9.0      0.000      0.000
REMARK  3 active torsions:
REMARK  status: ('A' for Active; 'I' for Inactive)
REMARK    1  A    between atoms: C_2  and  C_5 
REMARK    2  A    between atoms: C_13  and  N_14 
REMARK       I    between atoms: N_14  and  C_15 
REMARK       I    between atoms: C_15  and  N_17 
REMARK    3  A    between atoms: N_17  and  C_18 
ROOT
HETATM    1  N   UNL     1     -21.261  -6.319  -4.863  1.00  0.00    -0.334 N 
HETATM    2  C   UNL     1     -21.329  -6.316  -6.241  1.00  0.00     0.321 C 
HETATM    3  O   UNL     1     -21.556  -7.351  -6.860  1.00  0.00    -0.247 OA
HETATM    4  N   UNL     1     -21.067  -5.077  -6.789  1.00  0.00    -0.308 N 
HETATM    5  H   UNL     1     -21.420  -5.459  -4.358  1.00  0.00     0.165 HD
HETATM    6  H   UNL     1     -20.705  -4.390  -6.148  1.00  0.00     0.170 HD
ENDROOT
BRANCH   1   7
HETATM    7  C   UNL     1     -21.520  -7.568  -4.171  1.00  0.00     0.120 C 
HETATM    8  C   UNL     1     -20.290  -8.405  -3.983  1.00  0.00    -0.029 A 
HETATM    9  C   UNL     1     -19.653  -9.209  -4.909  1.00  0.00     0.010 A 
HETATM   10  C   UNL     1     -19.857  -8.372  -2.657  1.00  0.00    -0.049 A 
HETATM   11  C   UNL     1     -18.587 -10.010  -4.476  1.00  0.00     0.008 A 
HETATM   12  C   UNL     1     -18.139 -10.003  -3.129  1.00  0.00    -0.050 A 
HETATM   13  C   UNL     1     -18.788  -9.143  -2.225  1.00  0.00     0.015 A 
HETATM   14  C   UNL     1     -20.705  -7.449  -1.840  1.00  0.00     0.041 C 
HETATM   15  C   UNL     1     -21.970  -7.372  -2.706  1.00  0.00     0.035 C 
BRANCH  12  16
HETATM   16  C   UNL     1     -16.998 -10.941  -2.687  1.00  0.00    -0.024 C 
HETATM   17  C   UNL     1     -17.379 -11.648  -1.369  1.00  0.00     0.019 C 
HETATM   18  C   UNL     1     -15.704 -10.127  -2.470  1.00  0.00     0.019 C 
HETATM   19  C   UNL     1     -16.672 -12.044  -3.721  1.00  0.00     0.019 C 
ENDBRANCH  12  16
ENDBRANCH   1   7
BRANCH   4  20
HETATM   20  C   UNL     1     -21.022  -4.769  -8.184  1.00  0.00     0.047 A 
HETATM   21  C   UNL     1     -19.822  -4.899  -8.905  1.00  0.00     0.030 A 
HETATM   22  C   UNL     1     -19.737  -4.563 -10.253  1.00  0.00     0.003 A 
HETATM   23  C   UNL     1     -20.863  -4.108 -10.921  1.00  0.00     0.014 A 
HETATM   24  C   UNL     1     -22.086  -3.993 -10.246  1.00  0.00    -0.008 A 
HETATM   25  C   UNL     1     -23.220  -3.537 -10.920  1.00  0.00     0.100 A 
HETATM   26  C   UNL     1     -22.194  -4.323  -8.869  1.00  0.00     0.004 A 
HETATM   27  N   UNL     1     -24.437  -3.380 -10.360  1.00  0.00    -0.374 N 
HETATM   28  C   UNL     1     -24.533  -3.691  -9.056  1.00  0.00     0.088 A 
ATOM     29  HN  UNL     1     -25.238  -3.044 -10.895  1.00  0.00     0.164 HD
HETATM   30  C   UNL     1     -23.472  -4.156  -8.287  1.00  0.00     0.031 A 
ENDBRANCH   4  20
TORSDOF 3
ENDMDL
MODEL 2
REMARK VINA RESULT:      -8.9      2.270      3.364
REMARK  3 active torsions:
REMARK  status: ('A' for Active; 'I' for Inactive)
REMARK    1  A    between atoms: C_2  and  C_5 
REMARK    2  A    between atoms: C_13  and  N_14 
REMARK       I    between atoms: N_14  and  C_15 
REMARK       I    between atoms: C_15  and  N_17 
REMARK    3  A    between atoms: N_17  and  C_18 
ROOT
HETATM    1  N   UNL     1     -20.809  -6.069  -5.286  1.00  0.00    -0.334 N 
HETATM    2  C   UNL     1     -20.621  -5.966  -6.648  1.00  0.00     0.321 C 
HETATM    3  O   UNL     1     -19.825  -6.699  -7.228  1.00  0.00    -0.247 OA
HETATM    4  N   UNL     1     -21.364  -4.954  -7.219  1.00  0.00    -0.308 N 
HETATM    5  H   UNL     1     -21.670  -5.734  -4.878  1.00  0.00     0.165 HD
HETATM    6  H   UNL     1     -21.808  -4.326  -6.569  1.00  0.00     0.170 HD
ENDROOT
BRANCH   1   7
HETATM    7  C   UNL     1     -20.079  -7.101  -4.573  1.00  0.00     0.120 C 
HETATM    8  C   UNL     1     -20.841  -7.673  -3.416  1.00  0.00    -0.029 A 
HETATM    9  C   UNL     1     -21.024  -7.128  -2.158  1.00  0.00     0.010 A 
HETATM   10  C   UNL     1     -21.317  -8.952  -3.709  1.00  0.00    -0.049 A 
HETATM   11  C   UNL     1     -21.666  -7.902  -1.183  1.00  0.00     0.008 A 
HETATM   12  C   UNL     1     -22.145  -9.211  -1.454  1.00  0.00    -0.050 A 
HETATM   13  C   UNL     1     -21.975  -9.715  -2.756  1.00  0.00     0.015 A 
HETATM   14  C   UNL     1     -20.989  -9.335  -5.118  1.00  0.00     0.041 C 
HETATM   15  C   UNL     1     -19.834  -8.370  -5.420  1.00  0.00     0.035 C 
BRANCH  12  16
HETATM   16  C   UNL     1     -22.798 -10.046  -0.335  1.00  0.00    -0.024 C 
HETATM   17  C   UNL     1     -23.550  -9.119   0.643  1.00  0.00     0.019 C 
HETATM   18  C   UNL     1     -21.712 -10.824   0.439  1.00  0.00     0.019 C 
HETATM   19  C   UNL     1     -23.816 -11.086  -0.857  1.00  0.00     0.019 C 
ENDBRANCH  12  16
ENDBRANCH   1   7
BRANCH   4  20
HETATM   20  C   UNL     1     -21.351  -4.578  -8.598  1.00  0.00     0.047 A 
HETATM   21  C   UNL     1     -20.147  -4.569  -9.324  1.00  0.00     0.030 A 
HETATM   22  C   UNL     1     -20.095  -4.164 -10.654  1.00  0.00     0.003 A 
HETATM   23  C   UNL     1     -21.259  -3.777 -11.300  1.00  0.00     0.014 A 
HETATM   24  C   UNL     1     -22.484  -3.800 -10.622  1.00  0.00    -0.008 A 
HETATM   25  C   UNL     1     -23.655  -3.413 -11.275  1.00  0.00     0.100 A 
HETATM   26  C   UNL     1     -22.559  -4.203  -9.262  1.00  0.00     0.004 A 
HETATM   27  N   UNL     1     -24.880  -3.388 -10.709  1.00  0.00    -0.374 N 
HETATM   28  C   UNL     1     -24.944  -3.766  -9.421  1.00  0.00     0.088 A 
ATOM     29  HN  UNL     1     -25.709  -3.098 -11.228  1.00  0.00     0.164 HD
HETATM   30  C   UNL     1     -23.844  -4.174  -8.674  1.00  0.00     0.031 A 
ENDBRANCH   4  20
TORSDOF 3
ENDMDL
MODEL 3
REMARK VINA RESULT:      -8.7      5.154     10.862
REMARK  3 active torsions:
REMARK  status: ('A' for Active; 'I' for Inactive)
REMARK    1  A    between atoms: C_2  and  C_5 
REMARK    2  A    between atoms: C_13  and  N_14 
REMARK       I    between atoms: N_14  and  C_15 
REMARK       I    between atoms: C_15  and  N_17 
REMARK    3  A    between atoms: N_17  and  C_18 
ROOT
HETATM    1  N   UNL     1     -21.757 -10.223  -0.736  1.00  0.00    -0.334 N 
HETATM    2  C   UNL     1     -21.591 -11.091   0.323  1.00  0.00     0.321 C 
HETATM    3  O   UNL     1     -20.771 -10.854   1.205  1.00  0.00    -0.247 OA
HETATM    4  N   UNL     1     -22.385 -12.215   0.227  1.00  0.00    -0.308 N 
HETATM    5  H   UNL     1     -22.626 -10.229  -1.249  1.00  0.00     0.165 HD
HETATM    6  H   UNL     1     -22.848 -12.341  -0.658  1.00  0.00     0.170 HD
ENDROOT
BRANCH   1   7
HETATM    7  C   UNL     1     -20.974  -9.002  -0.745  1.00  0.00     0.120 C 
HETATM    8  C   UNL     1     -20.883  -8.367  -2.101  1.00  0.00    -0.029 A 
HETATM    9  C   UNL     1     -20.074  -8.730  -3.162  1.00  0.00     0.010 A 
HETATM   10  C   UNL     1     -21.684  -7.228  -2.178  1.00  0.00    -0.049 A 
HETATM   11  C   UNL     1     -20.058  -7.910  -4.298  1.00  0.00     0.008 A 
HETATM   12  C   UNL     1     -20.855  -6.738  -4.394  1.00  0.00    -0.050 A 
HETATM   13  C   UNL     1     -21.692  -6.424  -3.309  1.00  0.00     0.015 A 
HETATM   14  C   UNL     1     -22.453  -7.027  -0.911  1.00  0.00     0.041 C 
HETATM   15  C   UNL     1     -21.617  -7.858   0.072  1.00  0.00     0.035 C 
BRANCH  12  16
HETATM   16  C   UNL     1     -20.763  -5.837  -5.641  1.00  0.00    -0.024 C 
HETATM   17  C   UNL     1     -20.014  -4.533  -5.295  1.00  0.00     0.019 C 
HETATM   18  C   UNL     1     -22.182  -5.489  -6.142  1.00  0.00     0.019 C 
HETATM   19  C   UNL     1     -20.015  -6.497  -6.822  1.00  0.00     0.019 C 
ENDBRANCH  12  16
ENDBRANCH   1   7
BRANCH   4  20
HETATM   20  C   UNL     1     -22.406 -13.309   1.147  1.00  0.00     0.047 A 
HETATM   21  C   UNL     1     -23.503 -13.497   2.006  1.00  0.00     0.030 A 
HETATM   22  C   UNL     1     -23.532 -14.525   2.943  1.00  0.00     0.003 A 
HETATM   23  C   UNL     1     -22.467 -15.409   3.028  1.00  0.00     0.014 A 
HETATM   24  C   UNL     1     -21.368 -15.274   2.170  1.00  0.00    -0.008 A 
HETATM   25  C   UNL     1     -20.298 -16.166   2.254  1.00  0.00     0.100 A 
HETATM   26  C   UNL     1     -21.314 -14.228   1.211  1.00  0.00     0.004 A 
HETATM   27  N   UNL     1     -19.191 -16.115   1.485  1.00  0.00    -0.374 N 
HETATM   28  C   UNL     1     -19.144 -15.121   0.581  1.00  0.00     0.088 A 
ATOM     29  HN  UNL     1     -18.434 -16.792   1.582  1.00  0.00     0.164 HD
HETATM   30  C   UNL     1     -20.152 -14.180   0.407  1.00  0.00     0.031 A 
ENDBRANCH   4  20
TORSDOF 3
ENDMDL
MODEL 4
REMARK VINA RESULT:      -8.7      2.018      3.440
REMARK  3 active torsions:
REMARK  status: ('A' for Active; 'I' for Inactive)
REMARK    1  A    between atoms: C_2  and  C_5 
REMARK    2  A    between atoms: C_13  and  N_14 
REMARK       I    between atoms: N_14  and  C_15 
REMARK       I    between atoms: C_15  and  N_17 
REMARK    3  A    between atoms: N_17  and  C_18 
ROOT
HETATM    1  N   UNL     1     -18.994  -8.114  -5.735  1.00  0.00    -0.334 N 
HETATM    2  C   UNL     1     -20.201  -7.546  -6.087  1.00  0.00     0.321 C 
HETATM    3  O   UNL     1     -21.258  -8.122  -5.849  1.00  0.00    -0.247 OA
HETATM    4  N   UNL     1     -20.057  -6.345  -6.750  1.00  0.00    -0.308 N 
HETATM    5  H   UNL     1     -18.186  -7.522  -5.611  1.00  0.00     0.165 HD
HETATM    6  H   UNL     1     -19.118  -6.120  -7.035  1.00  0.00     0.170 HD
ENDROOT
BRANCH   1   7
HETATM    7  C   UNL     1     -19.019  -9.382  -5.030  1.00  0.00     0.120 C 
HETATM    8  C   UNL     1     -17.811 -10.231  -5.297  1.00  0.00    -0.029 A 
HETATM    9  C   UNL     1     -17.543 -11.010  -6.407  1.00  0.00     0.010 A 
HETATM   10  C   UNL     1     -16.950 -10.240  -4.200  1.00  0.00    -0.049 A 
HETATM   11  C   UNL     1     -16.406 -11.829  -6.387  1.00  0.00     0.008 A 
HETATM   12  C   UNL     1     -15.522 -11.865  -5.276  1.00  0.00    -0.050 A 
HETATM   13  C   UNL     1     -15.809 -11.029  -4.182  1.00  0.00     0.015 A 
HETATM   14  C   UNL     1     -17.452  -9.337  -3.117  1.00  0.00     0.041 C 
HETATM   15  C   UNL     1     -18.936  -9.228  -3.494  1.00  0.00     0.035 C 
BRANCH  12  16
HETATM   16  C   UNL     1     -14.314 -12.822  -5.276  1.00  0.00    -0.024 C 
HETATM   17  C   UNL     1     -14.801 -14.285  -5.310  1.00  0.00     0.019 C 
HETATM   18  C   UNL     1     -13.467 -12.598  -4.005  1.00  0.00     0.019 C 
HETATM   19  C   UNL     1     -13.373 -12.623  -6.488  1.00  0.00     0.019 C 
ENDBRANCH  12  16
ENDBRANCH   1   7
BRANCH   4  20
HETATM   20  C   UNL     1     -21.117  -5.543  -7.274  1.00  0.00     0.047 A 
HETATM   21  C   UNL     1     -22.276  -5.307  -6.513  1.00  0.00     0.030 A 
HETATM   22  C   UNL     1     -23.344  -4.568  -7.014  1.00  0.00     0.003 A 
HETATM   23  C   UNL     1     -23.268  -4.027  -8.287  1.00  0.00     0.014 A 
HETATM   24  C   UNL     1     -22.120  -4.214  -9.067  1.00  0.00    -0.008 A 
HETATM   25  C   UNL     1     -22.044  -3.665 -10.349  1.00  0.00     0.100 A 
HETATM   26  C   UNL     1     -21.020  -4.969  -8.580  1.00  0.00     0.004 A 
HETATM   27  N   UNL     1     -20.990  -3.797 -11.181  1.00  0.00    -0.374 N 
HETATM   28  C   UNL     1     -19.955  -4.516 -10.715  1.00  0.00     0.088 A 
ATOM     29  HN  UNL     1     -20.980  -3.376 -12.110  1.00  0.00     0.164 HD
HETATM   30  C   UNL     1     -19.920  -5.105  -9.456  1.00  0.00     0.031 A 
ENDBRANCH   4  20
TORSDOF 3
ENDMDL
MODEL 5
REMARK VINA RESULT:      -8.6      5.648     10.264
REMARK  3 active torsions:
REMARK  status: ('A' for Active; 'I' for Inactive)
REMARK    1  A    between atoms: C_2  and  C_5 
REMARK    2  A    between atoms: C_13  and  N_14 
REMARK       I    between atoms: N_14  and  C_15 
REMARK       I    between atoms: C_15  and  N_17 
REMARK    3  A    between atoms: N_17  and  C_18 
ROOT
HETATM    1  N   UNL     1     -22.560  -9.990  -0.814  1.00  0.00    -0.334 N 
HETATM    2  C   UNL     1     -22.376 -11.161  -0.110  1.00  0.00     0.321 C 
HETATM    3  O   UNL     1     -21.300 -11.409   0.426  1.00  0.00    -0.247 OA
HETATM    4  N   UNL     1     -23.482 -11.985  -0.140  1.00  0.00    -0.308 N 
HETATM    5  H   UNL     1     -23.495  -9.635  -0.949  1.00  0.00     0.165 HD
HETATM    6  H   UNL     1     -24.203 -11.717  -0.789  1.00  0.00     0.170 HD
ENDROOT
BRANCH   1   7
HETATM    7  C   UNL     1     -21.463  -9.040  -0.854  1.00  0.00     0.120 C 
HETATM    8  C   UNL     1     -21.303  -8.378  -2.190  1.00  0.00    -0.029 A 
HETATM    9  C   UNL     1     -20.720  -8.889  -3.334  1.00  0.00     0.010 A 
HETATM   10  C   UNL     1     -21.749  -7.056  -2.152  1.00  0.00    -0.049 A 
HETATM   11  C   UNL     1     -20.560  -8.041  -4.437  1.00  0.00     0.008 A 
HETATM   12  C   UNL     1     -20.993  -6.689  -4.417  1.00  0.00    -0.050 A 
HETATM   13  C   UNL     1     -21.617  -6.216  -3.249  1.00  0.00     0.015 A 
HETATM   14  C   UNL     1     -22.325  -6.723  -0.812  1.00  0.00     0.041 C 
HETATM   15  C   UNL     1     -21.685  -7.813   0.059  1.00  0.00     0.035 C 
BRANCH  12  16
HETATM   16  C   UNL     1     -20.748  -5.778  -5.636  1.00  0.00    -0.024 C 
HETATM   17  C   UNL     1     -22.088  -5.448  -6.325  1.00  0.00     0.019 C 
HETATM   18  C   UNL     1     -19.821  -6.490  -6.645  1.00  0.00     0.019 C 
HETATM   19  C   UNL     1     -20.075  -4.434  -5.274  1.00  0.00     0.019 C 
ENDBRANCH  12  16
ENDBRANCH   1   7
BRANCH   4  20
HETATM   20  C   UNL     1     -23.581 -13.279   0.460  1.00  0.00     0.047 A 
HETATM   21  C   UNL     1     -23.442 -13.433   1.851  1.00  0.00     0.030 A 
HETATM   22  C   UNL     1     -23.488 -14.684   2.458  1.00  0.00     0.003 A 
HETATM   23  C   UNL     1     -23.699 -15.816   1.687  1.00  0.00     0.014 A 
HETATM   24  C   UNL     1     -23.872 -15.703   0.301  1.00  0.00    -0.008 A 
HETATM   25  C   UNL     1     -24.087 -16.844  -0.475  1.00  0.00     0.100 A 
HETATM   26  C   UNL     1     -23.822 -14.438  -0.341  1.00  0.00     0.004 A 
HETATM   27  N   UNL     1     -24.253 -16.843  -1.814  1.00  0.00    -0.374 N 
HETATM   28  C   UNL     1     -24.201 -15.643  -2.416  1.00  0.00     0.088 A 
ATOM     29  HN  UNL     1     -24.409 -17.704  -2.339  1.00  0.00     0.164 HD
HETATM   30  C   UNL     1     -23.996 -14.443  -1.744  1.00  0.00     0.031 A 
ENDBRANCH   4  20
TORSDOF 3
ENDMDL
MODEL 6
REMARK VINA RESULT:      -8.5      5.698     10.380
REMARK  3 active torsions:
REMARK  status: ('A' for Active; 'I' for Inactive)
REMARK    1  A    between atoms: C_2  and  C_5 
REMARK    2  A    between atoms: C_13  and  N_14 
REMARK       I    between atoms: N_14  and  C_15 
REMARK       I    between atoms: C_15  and  N_17 
REMARK    3  A    between atoms: N_17  and  C_18 
ROOT
HETATM    1  N   UNL     1     -22.742 -10.004  -0.720  1.00  0.00    -0.334 N 
HETATM    2  C   UNL     1     -22.520 -11.366  -0.695  1.00  0.00     0.321 C 
HETATM    3  O   UNL     1     -21.381 -11.817  -0.774  1.00  0.00    -0.247 OA
HETATM    4  N   UNL     1     -23.686 -12.099  -0.630  1.00  0.00    -0.308 N 
HETATM    5  H   UNL     1     -23.591  -9.634  -0.321  1.00  0.00     0.165 HD
HETATM    6  H   UNL     1     -24.533 -11.575  -0.774  1.00  0.00     0.170 HD
ENDROOT
BRANCH   1   7
HETATM    7  C   UNL     1     -21.587  -9.128  -0.788  1.00  0.00     0.120 C 
HETATM    8  C   UNL     1     -21.427  -8.462  -2.122  1.00  0.00    -0.029 A 
HETATM    9  C   UNL     1     -20.915  -8.999  -3.289  1.00  0.00     0.010 A 
HETATM   10  C   UNL     1     -21.784  -7.115  -2.059  1.00  0.00    -0.049 A 
HETATM   11  C   UNL     1     -20.736  -8.151  -4.390  1.00  0.00     0.008 A 
HETATM   12  C   UNL     1     -21.079  -6.774  -4.344  1.00  0.00    -0.050 A 
HETATM   13  C   UNL     1     -21.633  -6.274  -3.152  1.00  0.00     0.015 A 
HETATM   14  C   UNL     1     -22.295  -6.760  -0.698  1.00  0.00     0.041 C 
HETATM   15  C   UNL     1     -21.700  -7.898   0.142  1.00  0.00     0.035 C 
BRANCH  12  16
HETATM   16  C   UNL     1     -20.814  -5.867  -5.563  1.00  0.00    -0.024 C 
HETATM   17  C   UNL     1     -19.960  -6.620  -6.604  1.00  0.00     0.019 C 
HETATM   18  C   UNL     1     -20.063  -4.594  -5.116  1.00  0.00     0.019 C 
HETATM   19  C   UNL     1     -22.105  -5.404  -6.277  1.00  0.00     0.019 C 
ENDBRANCH  12  16
ENDBRANCH   1   7
BRANCH   4  20
HETATM   20  C   UNL     1     -23.782 -13.525  -0.631  1.00  0.00     0.047 A 
HETATM   21  C   UNL     1     -24.001 -14.225  -1.831  1.00  0.00     0.030 A 
HETATM   22  C   UNL     1     -24.145 -15.609  -1.857  1.00  0.00     0.003 A 
HETATM   23  C   UNL     1     -24.049 -16.332  -0.679  1.00  0.00     0.014 A 
HETATM   24  C   UNL     1     -23.801 -15.677   0.534  1.00  0.00    -0.008 A 
HETATM   25  C   UNL     1     -23.702 -16.407   1.720  1.00  0.00     0.100 A 
HETATM   26  C   UNL     1     -23.658 -14.264   0.586  1.00  0.00     0.004 A 
HETATM   27  N   UNL     1     -23.478 -15.871   2.937  1.00  0.00    -0.374 N 
HETATM   28  C   UNL     1     -23.348 -14.534   2.980  1.00  0.00     0.088 A 
ATOM     29  HN  UNL     1     -23.412 -16.447   3.777  1.00  0.00     0.164 HD
HETATM   30  C   UNL     1     -23.425 -13.708   1.864  1.00  0.00     0.031 A 
ENDBRANCH   4  20
TORSDOF 3
ENDMDL
MODEL 7
REMARK VINA RESULT:      -8.3      2.766      3.995
REMARK  3 active torsions:
REMARK  status: ('A' for Active; 'I' for Inactive)
REMARK    1  A    between atoms: C_2  and  C_5 
REMARK    2  A    between atoms: C_13  and  N_14 
REMARK       I    between atoms: N_14  and  C_15 
REMARK       I    between atoms: C_15  and  N_17 
REMARK    3  A    between atoms: N_17  and  C_18 
ROOT
HETATM    1  N   UNL     1     -21.573  -5.290  -5.273  1.00  0.00    -0.334 N 
HETATM    2  C   UNL     1     -21.778  -5.368  -6.635  1.00  0.00     0.321 C 
HETATM    3  O   UNL     1     -21.177  -6.196  -7.313  1.00  0.00    -0.247 OA
HETATM    4  N   UNL     1     -22.652  -4.409  -7.102  1.00  0.00    -0.308 N 
HETATM    5  H   UNL     1     -22.283  -4.875  -4.688  1.00  0.00     0.165 HD
HETATM    6  H   UNL     1     -22.895  -3.689  -6.443  1.00  0.00     0.170 HD
ENDROOT
BRANCH   1   7
HETATM    7  C   UNL     1     -20.670  -6.249  -4.664  1.00  0.00     0.120 C 
HETATM    8  C   UNL     1     -21.209  -6.849  -3.400  1.00  0.00    -0.029 A 
HETATM    9  C   UNL     1     -21.245  -6.290  -2.136  1.00  0.00     0.010 A 
HETATM   10  C   UNL     1     -21.624  -8.165  -3.604  1.00  0.00    -0.049 A 
HETATM   11  C   UNL     1     -21.677  -7.086  -1.067  1.00  0.00     0.008 A 
HETATM   12  C   UNL     1     -22.091  -8.432  -1.249  1.00  0.00    -0.050 A 
HETATM   13  C   UNL     1     -22.076  -8.953  -2.555  1.00  0.00     0.015 A 
HETATM   14  C   UNL     1     -21.479  -8.555  -5.041  1.00  0.00     0.041 C 
HETATM   15  C   UNL     1     -20.457  -7.516  -5.523  1.00  0.00     0.035 C 
BRANCH  12  16
HETATM   16  C   UNL     1     -22.507  -9.287  -0.035  1.00  0.00    -0.024 C 
HETATM   17  C   UNL     1     -23.169  -8.394   1.035  1.00  0.00     0.019 C 
HETATM   18  C   UNL     1     -21.264  -9.972   0.574  1.00  0.00     0.019 C 
HETATM   19  C   UNL     1     -23.514 -10.406  -0.387  1.00  0.00     0.019 C 
ENDBRANCH  12  16
ENDBRANCH   1   7
BRANCH   4  20
HETATM   20  C   UNL     1     -23.030  -4.212  -8.467  1.00  0.00     0.047 A 
HETATM   21  C   UNL     1     -24.386  -4.123  -8.825  1.00  0.00     0.030 A 
HETATM   22  C   UNL     1     -24.786  -3.977 -10.150  1.00  0.00     0.003 A 
HETATM   23  C   UNL     1     -23.832  -3.893 -11.151  1.00  0.00     0.014 A 
HETATM   24  C   UNL     1     -22.469  -3.948 -10.833  1.00  0.00    -0.008 A 
HETATM   25  C   UNL     1     -21.508  -3.861 -11.842  1.00  0.00     0.100 A 
HETATM   26  C   UNL     1     -22.037  -4.104  -9.489  1.00  0.00     0.004 A 
HETATM   27  N   UNL     1     -20.175  -3.915 -11.643  1.00  0.00    -0.374 N 
HETATM   28  C   UNL     1     -19.773  -4.066 -10.369  1.00  0.00     0.088 A 
ATOM     29  HN  UNL     1     -19.510  -3.846 -12.413  1.00  0.00     0.164 HD
HETATM   30  C   UNL     1     -20.640  -4.160  -9.286  1.00  0.00     0.031 A 
ENDBRANCH   4  20
TORSDOF 3
ENDMDL
MODEL 8
REMARK VINA RESULT:      -8.2      4.312      7.332
REMARK  3 active torsions:
REMARK  status: ('A' for Active; 'I' for Inactive)
REMARK    1  A    between atoms: C_2  and  C_5 
REMARK    2  A    between atoms: C_13  and  N_14 
REMARK       I    between atoms: N_14  and  C_15 
REMARK       I    between atoms: C_15  and  N_17 
REMARK    3  A    between atoms: N_17  and  C_18 
ROOT
HETATM    1  N   UNL     1     -17.296 -11.224  -2.539  1.00  0.00    -0.334 N 
HETATM    2  C   UNL     1     -17.739  -9.957  -2.858  1.00  0.00     0.321 C 
HETATM    3  O   UNL     1     -17.018  -8.979  -2.685  1.00  0.00    -0.247 OA
HETATM    4  N   UNL     1     -19.040  -9.943  -3.315  1.00  0.00    -0.308 N 
HETATM    5  H   UNL     1     -17.722 -12.024  -2.983  1.00  0.00     0.165 HD
HETATM    6  H   UNL     1     -19.546 -10.806  -3.205  1.00  0.00     0.170 HD
ENDROOT
BRANCH   1   7
HETATM    7  C   UNL     1     -15.938 -11.367  -2.046  1.00  0.00     0.120 C 
HETATM    8  C   UNL     1     -15.837 -12.252  -0.840  1.00  0.00    -0.029 A 
HETATM    9  C   UNL     1     -16.134 -11.943   0.475  1.00  0.00     0.010 A 
HETATM   10  C   UNL     1     -15.284 -13.490  -1.169  1.00  0.00    -0.049 A 
HETATM   11  C   UNL     1     -15.838 -12.890   1.465  1.00  0.00     0.008 A 
HETATM   12  C   UNL     1     -15.263 -14.150   1.155  1.00  0.00    -0.050 A 
HETATM   13  C   UNL     1     -15.010 -14.442  -0.198  1.00  0.00     0.015 A 
HETATM   14  C   UNL     1     -15.032 -13.589  -2.641  1.00  0.00     0.041 C 
HETATM   15  C   UNL     1     -15.006 -12.106  -3.032  1.00  0.00     0.035 C 
BRANCH  12  16
HETATM   16  C   UNL     1     -14.904 -15.138   2.282  1.00  0.00    -0.024 C 
HETATM   17  C   UNL     1     -15.305 -14.544   3.649  1.00  0.00     0.019 C 
HETATM   18  C   UNL     1     -13.385 -15.413   2.275  1.00  0.00     0.019 C 
HETATM   19  C   UNL     1     -15.613 -16.506   2.151  1.00  0.00     0.019 C 
ENDBRANCH  12  16
ENDBRANCH   1   7
BRANCH   4  20
HETATM   20  C   UNL     1     -19.787  -8.781  -3.684  1.00  0.00     0.047 A 
HETATM   21  C   UNL     1     -19.700  -8.261  -4.987  1.00  0.00     0.030 A 
HETATM   22  C   UNL     1     -20.379  -7.105  -5.362  1.00  0.00     0.003 A 
HETATM   23  C   UNL     1     -21.184  -6.452  -4.443  1.00  0.00     0.014 A 
HETATM   24  C   UNL     1     -21.322  -6.954  -3.143  1.00  0.00    -0.008 A 
HETATM   25  C   UNL     1     -22.135  -6.296  -2.218  1.00  0.00     0.100 A 
HETATM   26  C   UNL     1     -20.633  -8.127  -2.735  1.00  0.00     0.004 A 
HETATM   27  N   UNL     1     -22.325  -6.690  -0.942  1.00  0.00    -0.374 N 
HETATM   28  C   UNL     1     -21.668  -7.799  -0.562  1.00  0.00     0.088 A 
ATOM     29  HN  UNL     1     -22.931  -6.177  -0.303  1.00  0.00     0.164 HD
HETATM   30  C   UNL     1     -20.835  -8.535  -1.397  1.00  0.00     0.031 A 
ENDBRANCH   4  20
TORSDOF 3
ENDMDL
MODEL 9
REMARK VINA RESULT:      -8.2     18.096     20.489
REMARK  3 active torsions:
REMARK  status: ('A' for Active; 'I' for Inactive)
REMARK    1  A    between atoms: C_2  and  C_5 
REMARK    2  A    between atoms: C_13  and  N_14 
REMARK       I    between atoms: N_14  and  C_15 
REMARK       I    between atoms: C_15  and  N_17 
REMARK    3  A    between atoms: N_17  and  C_18 
ROOT
HETATM    1  N   UNL     1     -20.059   9.532   4.408  1.00  0.00    -0.334 N 
HETATM    2  C   UNL     1     -18.736   9.906   4.523  1.00  0.00     0.321 C 
HETATM    3  O   UNL     1     -18.378  11.043   4.230  1.00  0.00    -0.247 OA
HETATM    4  N   UNL     1     -17.919   8.873   4.933  1.00  0.00    -0.308 N 
HETATM    5  H   UNL     1     -20.402   8.755   4.952  1.00  0.00     0.165 HD
HETATM    6  H   UNL     1     -18.345   7.962   4.936  1.00  0.00     0.170 HD
ENDROOT
BRANCH   1   7
HETATM    7  C   UNL     1     -21.016  10.537   3.983  1.00  0.00     0.120 C 
HETATM    8  C   UNL     1     -21.979  10.036   2.949  1.00  0.00    -0.029 A 
HETATM    9  C   UNL     1     -21.766   9.865   1.594  1.00  0.00     0.010 A 
HETATM   10  C   UNL     1     -23.244   9.825   3.499  1.00  0.00    -0.049 A 
HETATM   11  C   UNL     1     -22.855   9.507   0.788  1.00  0.00     0.008 A 
HETATM   12  C   UNL     1     -24.154   9.300   1.323  1.00  0.00    -0.050 A 
HETATM   13  C   UNL     1     -24.322   9.446   2.712  1.00  0.00     0.015 A 
HETATM   14  C   UNL     1     -23.237  10.086   4.972  1.00  0.00     0.041 C 
HETATM   15  C   UNL     1     -21.988  10.967   5.106  1.00  0.00     0.035 C 
BRANCH  12  16
HETATM   16  C   UNL     1     -25.333   8.960   0.390  1.00  0.00    -0.024 C 
HETATM   17  C   UNL     1     -25.008   7.693  -0.428  1.00  0.00     0.019 C 
HETATM   18  C   UNL     1     -25.592  10.136  -0.577  1.00  0.00     0.019 C 
HETATM   19  C   UNL     1     -26.656   8.693   1.144  1.00  0.00     0.019 C 
ENDBRANCH  12  16
ENDBRANCH   1   7
BRANCH   4  20
HETATM   20  C   UNL     1     -16.502   8.941   5.103  1.00  0.00     0.047 A 
HETATM   21  C   UNL     1     -15.937   8.946   6.391  1.00  0.00     0.030 A 
HETATM   22  C   UNL     1     -14.564   9.057   6.589  1.00  0.00     0.003 A 
HETATM   23  C   UNL     1     -13.716   9.145   5.496  1.00  0.00     0.014 A 
HETATM   24  C   UNL     1     -14.236   9.115   4.196  1.00  0.00    -0.008 A 
HETATM   25  C   UNL     1     -13.381   9.201   3.096  1.00  0.00     0.100 A 
HETATM   26  C   UNL     1     -15.634   9.009   3.969  1.00  0.00     0.004 A 
HETATM   27  N   UNL     1     -13.781   9.192   1.807  1.00  0.00    -0.374 N 
HETATM   28  C   UNL     1     -15.105   9.095   1.600  1.00  0.00     0.088 A 
ATOM     29  HN  UNL     1     -13.117   9.256   1.036  1.00  0.00     0.164 HD
HETATM   30  C   UNL     1     -16.047   9.001   2.618  1.00  0.00     0.031 A 
ENDBRANCH   4  20
TORSDOF 3
ENDMDL
