MODEL 1
REMARK VINA RESULT:      -8.0      0.000      0.000
REMARK  4 active torsions:
REMARK  status: ('A' for Active; 'I' for Inactive)
REMARK       I    between atoms: C_2  and  N_3 
REMARK       I    between atoms: C_2  and  N_15 
REMARK    1  A    between atoms: N_3  and  C_4 
REMARK    2  A    between atoms: C_7  and  C_8 
REMARK    3  A    between atoms: N_18  and  C_19 
REMARK    4  A    between atoms: C_25  and  C_26 
ROOT
HETATM    1  O   UNL     1     -20.643  -5.372  -4.249  1.00  0.00    -0.247 OA
HETATM    2  C   UNL     1     -21.158  -6.429  -4.605  1.00  0.00     0.324 C 
HETATM    3  N   UNL     1     -21.604  -6.678  -5.881  1.00  0.00    -0.295 N 
HETATM    4  N   UNL     1     -21.376  -7.468  -3.727  1.00  0.00    -0.331 N 
HETATM    5  C   UNL     1     -21.358  -7.223  -2.272  1.00  0.00     0.147 C 
HETATM    6  C   UNL     1     -20.541  -8.281  -1.498  1.00  0.00     0.144 C 
HETATM    7  N   UNL     1     -21.008  -9.615  -1.936  1.00  0.00    -0.363 N 
HETATM    8  C   UNL     1     -20.738  -9.829  -3.365  1.00  0.00     0.144 C 
HETATM    9  C   UNL     1     -21.640  -8.852  -4.144  1.00  0.00     0.147 C 
HETATM   10  H   UNL     1     -22.510  -7.119  -5.932  1.00  0.00     0.172 HD
ENDROOT
BRANCH   3  11
HETATM   11  C   UNL     1     -21.385  -5.796  -6.934  1.00  0.00     0.108 A 
HETATM   12  C   UNL     1     -22.326  -4.839  -7.286  1.00  0.00     0.049 A 
HETATM   13  C   UNL     1     -22.060  -4.011  -8.371  1.00  0.00     0.021 A 
HETATM   14  C   UNL     1     -20.873  -4.180  -9.087  1.00  0.00     0.063 A 
HETATM   15  C   UNL     1     -19.983  -5.144  -8.636  1.00  0.00     0.106 A 
HETATM   16  N   UNL     1     -20.195  -5.928  -7.554  1.00  0.00    -0.351 N 
ATOM     17  HN  UNL     1     -19.490  -6.586  -7.223  1.00  0.00     0.166 HD
BRANCH  14  18
HETATM   18  C   UNL     1     -20.547  -3.382 -10.306  1.00  0.00     0.418 C 
HETATM   19  F   UNL     1     -19.852  -2.241 -10.043  1.00  0.00    -0.166 F 
HETATM   20  F   UNL     1     -19.791  -4.079 -11.200  1.00  0.00    -0.166 F 
HETATM   21  F   UNL     1     -21.661  -2.992 -10.987  1.00  0.00    -0.166 F 
ENDBRANCH  14  18
ENDBRANCH   3  11
BRANCH   7  22
HETATM   22  C   UNL     1     -20.985 -10.674  -1.057  1.00  0.00     0.118 A 
HETATM   23  N   UNL     1     -19.764 -11.223  -0.807  1.00  0.00    -0.352 N 
HETATM   24  C   UNL     1     -19.652 -12.221   0.097  1.00  0.00     0.089 A 
ATOM     25  HN  UNL     1     -18.939 -10.882  -1.299  1.00  0.00     0.166 HD
HETATM   26  C   UNL     1     -20.714 -12.733   0.806  1.00  0.00     0.018 A 
HETATM   27  C   UNL     1     -21.953 -12.167   0.571  1.00  0.00     0.021 A 
HETATM   28  C   UNL     1     -22.108 -11.111  -0.355  1.00  0.00     0.091 A 
BRANCH  28  29
HETATM   29  C   UNL     1     -23.492 -10.532  -0.436  1.00  0.00     0.421 C 
HETATM   30  F   UNL     1     -23.637  -9.200  -0.207  1.00  0.00    -0.166 F 
HETATM   31  F   UNL     1     -24.050 -10.741  -1.664  1.00  0.00    -0.166 F 
HETATM   32  F   UNL     1     -24.347 -11.122   0.450  1.00  0.00    -0.166 F 
ENDBRANCH  28  29
ENDBRANCH   7  22
TORSDOF 4
ENDMDL
MODEL 2
REMARK VINA RESULT:      -7.9      2.018      3.045
REMARK  4 active torsions:
REMARK  status: ('A' for Active; 'I' for Inactive)
REMARK       I    between atoms: C_2  and  N_3 
REMARK       I    between atoms: C_2  and  N_15 
REMARK    1  A    between atoms: N_3  and  C_4 
REMARK    2  A    between atoms: C_7  and  C_8 
REMARK    3  A    between atoms: N_18  and  C_19 
REMARK    4  A    between atoms: C_25  and  C_26 
ROOT
HETATM    1  O   UNL     1     -20.572  -7.514  -2.035  1.00  0.00    -0.247 OA
HETATM    2  C   UNL     1     -21.073  -8.509  -2.555  1.00  0.00     0.324 C 
HETATM    3  N   UNL     1     -21.537  -8.552  -3.848  1.00  0.00    -0.295 N 
HETATM    4  N   UNL     1     -21.253  -9.684  -1.860  1.00  0.00    -0.331 N 
HETATM    5  C   UNL     1     -21.212  -9.685  -0.385  1.00  0.00     0.147 C 
HETATM    6  C   UNL     1     -20.359 -10.837   0.189  1.00  0.00     0.144 C 
HETATM    7  N   UNL     1     -20.807 -12.091  -0.459  1.00  0.00    -0.363 N 
HETATM    8  C   UNL     1     -20.560 -12.058  -1.907  1.00  0.00     0.144 C 
HETATM    9  C   UNL     1     -21.496 -10.985  -2.498  1.00  0.00     0.147 C 
HETATM   10  H   UNL     1     -22.435  -8.999  -3.958  1.00  0.00     0.172 HD
ENDROOT
BRANCH   3  11
HETATM   11  C   UNL     1     -21.357  -7.502  -4.742  1.00  0.00     0.108 A 
HETATM   12  C   UNL     1     -22.393  -6.637  -5.064  1.00  0.00     0.049 A 
HETATM   13  C   UNL     1     -22.154  -5.630  -5.993  1.00  0.00     0.021 A 
HETATM   14  C   UNL     1     -20.895  -5.531  -6.589  1.00  0.00     0.063 A 
HETATM   15  C   UNL     1     -19.917  -6.424  -6.175  1.00  0.00     0.106 A 
HETATM   16  N   UNL     1     -20.109  -7.381  -5.238  1.00  0.00    -0.351 N 
ATOM     17  HN  UNL     1     -19.347  -7.981  -4.923  1.00  0.00     0.166 HD
BRANCH  14  18
HETATM   18  C   UNL     1     -20.581  -4.524  -7.646  1.00  0.00     0.418 C 
HETATM   19  F   UNL     1     -20.854  -4.955  -8.909  1.00  0.00    -0.166 F 
HETATM   20  F   UNL     1     -21.281  -3.367  -7.489  1.00  0.00    -0.166 F 
HETATM   21  F   UNL     1     -19.267  -4.165  -7.650  1.00  0.00    -0.166 F 
ENDBRANCH  14  18
ENDBRANCH   3  11
BRANCH   7  22
HETATM   22  C   UNL     1     -20.746 -13.280   0.231  1.00  0.00     0.118 A 
HETATM   23  N   UNL     1     -19.520 -13.867   0.313  1.00  0.00    -0.352 N 
HETATM   24  C   UNL     1     -19.368 -15.001   1.031  1.00  0.00     0.089 A 
ATOM     25  HN  UNL     1     -18.721 -13.452  -0.166  1.00  0.00     0.166 HD
HETATM   26  C   UNL     1     -20.391 -15.619   1.710  1.00  0.00     0.018 A 
HETATM   27  C   UNL     1     -21.635 -15.019   1.647  1.00  0.00     0.021 A 
HETATM   28  C   UNL     1     -21.831 -13.824   0.919  1.00  0.00     0.091 A 
BRANCH  28  29
HETATM   29  C   UNL     1     -23.209 -13.234   1.019  1.00  0.00     0.421 C 
HETATM   30  F   UNL     1     -23.344 -11.897   0.816  1.00  0.00    -0.166 F 
HETATM   31  F   UNL     1     -24.066 -13.814   0.129  1.00  0.00    -0.166 F 
HETATM   32  F   UNL     1     -23.769 -13.447   2.246  1.00  0.00    -0.166 F 
ENDBRANCH  28  29
ENDBRANCH   7  22
TORSDOF 4
ENDMDL
MODEL 3
REMARK VINA RESULT:      -7.7      2.509      3.172
REMARK  4 active torsions:
REMARK  status: ('A' for Active; 'I' for Inactive)
REMARK       I    between atoms: C_2  and  N_3 
REMARK       I    between atoms: C_2  and  N_15 
REMARK    1  A    between atoms: N_3  and  C_4 
REMARK    2  A    between atoms: C_7  and  C_8 
REMARK    3  A    between atoms: N_18  and  C_19 
REMARK    4  A    between atoms: C_25  and  C_26 
ROOT
HETATM    1  O   UNL     1     -21.201  -9.497  -5.866  1.00  0.00    -0.247 OA
HETATM    2  C   UNL     1     -21.093  -8.966  -4.763  1.00  0.00     0.324 C 
HETATM    3  N   UNL     1     -20.970  -7.611  -4.569  1.00  0.00    -0.295 N 
HETATM    4  N   UNL     1     -21.046  -9.701  -3.599  1.00  0.00    -0.331 N 
HETATM    5  C   UNL     1     -20.738 -11.143  -3.647  1.00  0.00     0.147 C 
HETATM    6  C   UNL     1     -21.687 -11.987  -2.767  1.00  0.00     0.144 C 
HETATM    7  N   UNL     1     -21.722 -11.365  -1.424  1.00  0.00    -0.363 N 
HETATM    8  C   UNL     1     -22.286 -10.009  -1.482  1.00  0.00     0.144 C 
HETATM    9  C   UNL     1     -21.283  -9.138  -2.263  1.00  0.00     0.147 C 
HETATM   10  H   UNL     1     -20.260  -7.344  -3.904  1.00  0.00     0.172 HD
ENDROOT
BRANCH   3  11
HETATM   11  C   UNL     1     -21.095  -6.693  -5.606  1.00  0.00     0.108 A 
HETATM   12  C   UNL     1     -22.186  -5.840  -5.693  1.00  0.00     0.049 A 
HETATM   13  C   UNL     1     -22.267  -4.970  -6.775  1.00  0.00     0.021 A 
HETATM   14  C   UNL     1     -21.267  -4.995  -7.750  1.00  0.00     0.063 A 
HETATM   15  C   UNL     1     -20.201  -5.862  -7.555  1.00  0.00     0.106 A 
HETATM   16  N   UNL     1     -20.074  -6.682  -6.486  1.00  0.00    -0.351 N 
ATOM     17  HN  UNL     1     -19.247  -7.264  -6.354  1.00  0.00     0.166 HD
BRANCH  14  18
HETATM   18  C   UNL     1     -21.317  -4.145  -8.977  1.00  0.00     0.418 C 
HETATM   19  F   UNL     1     -20.098  -3.683  -9.372  1.00  0.00    -0.166 F 
HETATM   20  F   UNL     1     -21.829  -4.808 -10.051  1.00  0.00    -0.166 F 
HETATM   21  F   UNL     1     -22.100  -3.042  -8.814  1.00  0.00    -0.166 F 
ENDBRANCH  14  18
ENDBRANCH   3  11
BRANCH   7  22
HETATM   22  C   UNL     1     -21.907 -12.149  -0.309  1.00  0.00     0.118 A 
HETATM   23  N   UNL     1     -23.193 -12.311   0.108  1.00  0.00    -0.352 N 
HETATM   24  C   UNL     1     -23.460 -13.122   1.155  1.00  0.00     0.089 A 
ATOM     25  HN  UNL     1     -23.951 -11.823  -0.368  1.00  0.00     0.166 HD
HETATM   26  C   UNL     1     -22.497 -13.820   1.847  1.00  0.00     0.018 A 
HETATM   27  C   UNL     1     -21.191 -13.675   1.417  1.00  0.00     0.021 A 
HETATM   28  C   UNL     1     -20.874 -12.848   0.316  1.00  0.00     0.091 A 
BRANCH  28  29
HETATM   29  C   UNL     1     -19.429 -12.864  -0.098  1.00  0.00     0.421 C 
HETATM   30  F   UNL     1     -19.132 -13.303  -1.349  1.00  0.00    -0.166 F 
HETATM   31  F   UNL     1     -18.875 -11.619  -0.021  1.00  0.00    -0.166 F 
HETATM   32  F   UNL     1     -18.669 -13.645   0.725  1.00  0.00    -0.166 F 
ENDBRANCH  28  29
ENDBRANCH   7  22
TORSDOF 4
ENDMDL
MODEL 4
REMARK VINA RESULT:      -7.6      2.567      3.387
REMARK  4 active torsions:
REMARK  status: ('A' for Active; 'I' for Inactive)
REMARK       I    between atoms: C_2  and  N_3 
REMARK       I    between atoms: C_2  and  N_15 
REMARK    1  A    between atoms: N_3  and  C_4 
REMARK    2  A    between atoms: C_7  and  C_8 
REMARK    3  A    between atoms: N_18  and  C_19 
REMARK    4  A    between atoms: C_25  and  C_26 
ROOT
HETATM    1  O   UNL     1     -19.772  -8.722  -3.001  1.00  0.00    -0.247 OA
HETATM    2  C   UNL     1     -20.903  -9.115  -3.278  1.00  0.00     0.324 C 
HETATM    3  N   UNL     1     -21.722  -8.517  -4.206  1.00  0.00    -0.295 N 
HETATM    4  N   UNL     1     -21.479 -10.191  -2.640  1.00  0.00    -0.331 N 
HETATM    5  C   UNL     1     -20.932 -10.669  -1.356  1.00  0.00     0.147 C 
HETATM    6  C   UNL     1     -20.783 -12.206  -1.305  1.00  0.00     0.144 C 
HETATM    7  N   UNL     1     -22.071 -12.795  -1.733  1.00  0.00    -0.363 N 
HETATM    8  C   UNL     1     -22.380 -12.443  -3.126  1.00  0.00     0.144 C 
HETATM    9  C   UNL     1     -22.644 -10.924  -3.157  1.00  0.00     0.147 C 
HETATM   10  H   UNL     1     -22.678  -8.396  -3.908  1.00  0.00     0.172 HD
ENDROOT
BRANCH   3  11
HETATM   11  C   UNL     1     -21.289  -7.481  -5.027  1.00  0.00     0.108 A 
HETATM   12  C   UNL     1     -22.048  -6.334  -5.208  1.00  0.00     0.049 A 
HETATM   13  C   UNL     1     -21.573  -5.351  -6.070  1.00  0.00     0.021 A 
HETATM   14  C   UNL     1     -20.366  -5.554  -6.742  1.00  0.00     0.063 A 
HETATM   15  C   UNL     1     -19.667  -6.720  -6.468  1.00  0.00     0.106 A 
HETATM   16  N   UNL     1     -20.082  -7.669  -5.597  1.00  0.00    -0.351 N 
ATOM     17  HN  UNL     1     -19.510  -8.485  -5.383  1.00  0.00     0.166 HD
BRANCH  14  18
HETATM   18  C   UNL     1     -19.825  -4.581  -7.738  1.00  0.00     0.418 C 
HETATM   19  F   UNL     1     -18.495  -4.330  -7.589  1.00  0.00    -0.166 F 
HETATM   20  F   UNL     1     -19.982  -5.006  -9.022  1.00  0.00    -0.166 F 
HETATM   21  F   UNL     1     -20.443  -3.368  -7.670  1.00  0.00    -0.166 F 
ENDBRANCH  14  18
ENDBRANCH   3  11
BRANCH   7  22
HETATM   22  C   UNL     1     -22.481 -14.002  -1.213  1.00  0.00     0.118 A 
HETATM   23  N   UNL     1     -22.252 -15.100  -1.984  1.00  0.00    -0.352 N 
HETATM   24  C   UNL     1     -22.565 -16.326  -1.512  1.00  0.00     0.089 A 
ATOM     25  HN  UNL     1     -21.847 -14.996  -2.914  1.00  0.00     0.166 HD
HETATM   26  C   UNL     1     -23.109 -16.552  -0.269  1.00  0.00     0.018 A 
HETATM   27  C   UNL     1     -23.326 -15.443   0.528  1.00  0.00     0.021 A 
HETATM   28  C   UNL     1     -22.997 -14.145   0.075  1.00  0.00     0.091 A 
BRANCH  28  29
HETATM   29  C   UNL     1     -23.198 -13.049   1.083  1.00  0.00     0.421 C 
HETATM   30  F   UNL     1     -23.880 -13.349   2.220  1.00  0.00    -0.166 F 
HETATM   31  F   UNL     1     -22.005 -12.541   1.512  1.00  0.00    -0.166 F 
HETATM   32  F   UNL     1     -23.871 -11.985   0.556  1.00  0.00    -0.166 F 
ENDBRANCH  28  29
ENDBRANCH   7  22
TORSDOF 4
ENDMDL
MODEL 5
REMARK VINA RESULT:      -7.3     18.110     19.813
REMARK  4 active torsions:
REMARK  status: ('A' for Active; 'I' for Inactive)
REMARK       I    between atoms: C_2  and  N_3 
REMARK       I    between atoms: C_2  and  N_15 
REMARK    1  A    between atoms: N_3  and  C_4 
REMARK    2  A    between atoms: C_7  and  C_8 
REMARK    3  A    between atoms: N_18  and  C_19 
REMARK    4  A    between atoms: C_25  and  C_26 
ROOT
HETATM    1  O   UNL     1     -20.644  10.985   1.466  1.00  0.00    -0.247 OA
HETATM    2  C   UNL     1     -20.582  10.364   2.524  1.00  0.00     0.324 C 
HETATM    3  N   UNL     1     -21.617   9.624   3.045  1.00  0.00    -0.295 N 
HETATM    4  N   UNL     1     -19.458  10.385   3.319  1.00  0.00    -0.331 N 
HETATM    5  C   UNL     1     -18.443  11.440   3.137  1.00  0.00     0.147 C 
HETATM    6  C   UNL     1     -17.001  10.886   3.126  1.00  0.00     0.144 C 
HETATM    7  N   UNL     1     -16.845  10.019   4.316  1.00  0.00    -0.363 N 
HETATM    8  C   UNL     1     -17.747   8.861   4.251  1.00  0.00     0.144 C 
HETATM    9  C   UNL     1     -19.184   9.404   4.379  1.00  0.00     0.147 C 
HETATM   10  H   UNL     1     -21.775   9.759   4.032  1.00  0.00     0.172 HD
ENDROOT
BRANCH   3  11
HETATM   11  C   UNL     1     -22.798   9.396   2.347  1.00  0.00     0.108 A 
HETATM   12  C   UNL     1     -24.024   9.828   2.834  1.00  0.00     0.049 A 
HETATM   13  C   UNL     1     -25.170   9.537   2.104  1.00  0.00     0.021 A 
HETATM   14  C   UNL     1     -25.061   8.803   0.920  1.00  0.00     0.063 A 
HETATM   15  C   UNL     1     -23.788   8.446   0.502  1.00  0.00     0.106 A 
HETATM   16  N   UNL     1     -22.653   8.759   1.168  1.00  0.00    -0.351 N 
ATOM     17  HN  UNL     1     -21.733   8.524   0.796  1.00  0.00     0.166 HD
BRANCH  14  18
HETATM   18  C   UNL     1     -26.250   8.388   0.118  1.00  0.00     0.418 C 
HETATM   19  F   UNL     1     -26.766   9.387  -0.652  1.00  0.00    -0.166 F 
HETATM   20  F   UNL     1     -25.972   7.367  -0.739  1.00  0.00    -0.166 F 
HETATM   21  F   UNL     1     -27.278   7.949   0.897  1.00  0.00    -0.166 F 
ENDBRANCH  14  18
ENDBRANCH   3  11
BRANCH   7  22
HETATM   22  C   UNL     1     -15.619   9.913   4.932  1.00  0.00     0.118 A 
HETATM   23  N   UNL     1     -15.540  10.395   6.203  1.00  0.00    -0.352 N 
HETATM   24  C   UNL     1     -14.389  10.265   6.898  1.00  0.00     0.089 A 
ATOM     25  HN  UNL     1     -16.347  10.852   6.629  1.00  0.00     0.166 HD
HETATM   26  C   UNL     1     -13.260   9.658   6.399  1.00  0.00     0.018 A 
HETATM   27  C   UNL     1     -13.339   9.149   5.116  1.00  0.00     0.021 A 
HETATM   28  C   UNL     1     -14.530   9.252   4.364  1.00  0.00     0.091 A 
BRANCH  28  29
HETATM   29  C   UNL     1     -14.500   8.570   3.025  1.00  0.00     0.421 C 
HETATM   30  F   UNL     1     -15.542   8.786   2.179  1.00  0.00    -0.166 F 
HETATM   31  F   UNL     1     -13.390   8.919   2.312  1.00  0.00    -0.166 F 
HETATM   32  F   UNL     1     -14.437   7.211   3.144  1.00  0.00    -0.166 F 
ENDBRANCH  28  29
ENDBRANCH   7  22
TORSDOF 4
ENDMDL
MODEL 6
REMARK VINA RESULT:      -7.2      3.642      4.587
REMARK  4 active torsions:
REMARK  status: ('A' for Active; 'I' for Inactive)
REMARK       I    between atoms: C_2  and  N_3 
REMARK       I    between atoms: C_2  and  N_15 
REMARK    1  A    between atoms: N_3  and  C_4 
REMARK    2  A    between atoms: C_7  and  C_8 
REMARK    3  A    between atoms: N_18  and  C_19 
REMARK    4  A    between atoms: C_25  and  C_26 
ROOT
HETATM    1  O   UNL     1     -20.669  -9.957  -5.774  1.00  0.00    -0.247 OA
HETATM    2  C   UNL     1     -20.006  -9.507  -4.842  1.00  0.00     0.324 C 
HETATM    3  N   UNL     1     -19.766  -8.169  -4.642  1.00  0.00    -0.295 N 
HETATM    4  N   UNL     1     -19.398 -10.326  -3.917  1.00  0.00    -0.331 N 
HETATM    5  C   UNL     1     -19.195 -11.756  -4.215  1.00  0.00     0.147 C 
HETATM    6  C   UNL     1     -19.592 -12.675  -3.038  1.00  0.00     0.144 C 
HETATM    7  N   UNL     1     -18.929 -12.155  -1.821  1.00  0.00    -0.363 N 
HETATM    8  C   UNL     1     -19.410 -10.806  -1.490  1.00  0.00     0.144 C 
HETATM    9  C   UNL     1     -18.914  -9.866  -2.607  1.00  0.00     0.147 C 
HETATM   10  H   UNL     1     -18.811  -7.943  -4.409  1.00  0.00     0.172 HD
ENDROOT
BRANCH   3  11
HETATM   11  C   UNL     1     -20.373  -7.178  -5.407  1.00  0.00     0.108 A 
HETATM   12  C   UNL     1     -21.548  -6.564  -4.998  1.00  0.00     0.049 A 
HETATM   13  C   UNL     1     -22.121  -5.605  -5.827  1.00  0.00     0.021 A 
HETATM   14  C   UNL     1     -21.515  -5.307  -7.050  1.00  0.00     0.063 A 
HETATM   15  C   UNL     1     -20.325  -5.953  -7.351  1.00  0.00     0.106 A 
HETATM   16  N   UNL     1     -19.721  -6.852  -6.541  1.00  0.00    -0.351 N 
ATOM     17  HN  UNL     1     -18.818  -7.262  -6.776  1.00  0.00     0.166 HD
BRANCH  14  18
HETATM   18  C   UNL     1     -22.105  -4.344  -8.027  1.00  0.00     0.418 C 
HETATM   19  F   UNL     1     -23.463  -4.413  -8.110  1.00  0.00    -0.166 F 
HETATM   20  F   UNL     1     -21.817  -3.048  -7.723  1.00  0.00    -0.166 F 
HETATM   21  F   UNL     1     -21.644  -4.540  -9.295  1.00  0.00    -0.166 F 
ENDBRANCH  14  18
ENDBRANCH   3  11
BRANCH   7  22
HETATM   22  C   UNL     1     -18.547 -13.022  -0.823  1.00  0.00     0.118 A 
HETATM   23  N   UNL     1     -19.528 -13.806  -0.298  1.00  0.00    -0.352 N 
HETATM   24  C   UNL     1     -19.217 -14.730   0.638  1.00  0.00     0.089 A 
ATOM     25  HN  UNL     1     -20.493 -13.697  -0.609  1.00  0.00     0.166 HD
HETATM   26  C   UNL     1     -17.942 -14.944   1.106  1.00  0.00     0.018 A 
HETATM   27  C   UNL     1     -16.938 -14.165   0.563  1.00  0.00     0.021 A 
HETATM   28  C   UNL     1     -17.221 -13.199  -0.428  1.00  0.00     0.091 A 
BRANCH  28  29
HETATM   29  C   UNL     1     -16.020 -12.496  -0.995  1.00  0.00     0.421 C 
HETATM   30  F   UNL     1     -15.972 -11.141  -0.895  1.00  0.00    -0.166 F 
HETATM   31  F   UNL     1     -14.865 -12.933  -0.413  1.00  0.00    -0.166 F 
HETATM   32  F   UNL     1     -15.864 -12.742  -2.329  1.00  0.00    -0.166 F 
ENDBRANCH  28  29
ENDBRANCH   7  22
TORSDOF 4
ENDMDL
MODEL 7
REMARK VINA RESULT:      -7.0      4.632      5.562
REMARK  4 active torsions:
REMARK  status: ('A' for Active; 'I' for Inactive)
REMARK       I    between atoms: C_2  and  N_3 
REMARK       I    between atoms: C_2  and  N_15 
REMARK    1  A    between atoms: N_3  and  C_4 
REMARK    2  A    between atoms: C_7  and  C_8 
REMARK    3  A    between atoms: N_18  and  C_19 
REMARK    4  A    between atoms: C_25  and  C_26 
ROOT
HETATM    1  O   UNL     1     -20.542 -10.036  -5.651  1.00  0.00    -0.247 OA
HETATM    2  C   UNL     1     -19.550  -9.562  -5.100  1.00  0.00     0.324 C 
HETATM    3  N   UNL     1     -19.223  -8.227  -5.117  1.00  0.00    -0.295 N 
HETATM    4  N   UNL     1     -18.638 -10.350  -4.435  1.00  0.00    -0.331 N 
HETATM    5  C   UNL     1     -18.601 -11.805  -4.678  1.00  0.00     0.147 C 
HETATM    6  C   UNL     1     -18.508 -12.627  -3.374  1.00  0.00     0.144 C 
HETATM    7  N   UNL     1     -17.400 -12.065  -2.568  1.00  0.00    -0.363 N 
HETATM    8  C   UNL     1     -17.679 -10.676  -2.179  1.00  0.00     0.144 C 
HETATM    9  C   UNL     1     -17.657  -9.834  -3.470  1.00  0.00     0.147 C 
HETATM   10  H   UNL     1     -18.251  -8.035  -5.306  1.00  0.00     0.172 HD
ENDROOT
BRANCH   3  11
HETATM   11  C   UNL     1     -20.066  -7.258  -5.649  1.00  0.00     0.108 A 
HETATM   12  C   UNL     1     -21.239  -6.884  -5.008  1.00  0.00     0.049 A 
HETATM   13  C   UNL     1     -22.054  -5.934  -5.612  1.00  0.00     0.021 A 
HETATM   14  C   UNL     1     -21.686  -5.402  -6.850  1.00  0.00     0.063 A 
HETATM   15  C   UNL     1     -20.479  -5.817  -7.393  1.00  0.00     0.106 A 
HETATM   16  N   UNL     1     -19.644  -6.703  -6.803  1.00  0.00    -0.351 N 
ATOM     17  HN  UNL     1     -18.739  -6.938  -7.210  1.00  0.00     0.166 HD
BRANCH  14  18
HETATM   18  C   UNL     1     -22.542  -4.432  -7.596  1.00  0.00     0.418 C 
HETATM   19  F   UNL     1     -22.099  -3.146  -7.526  1.00  0.00    -0.166 F 
HETATM   20  F   UNL     1     -22.625  -4.724  -8.924  1.00  0.00    -0.166 F 
HETATM   21  F   UNL     1     -23.825  -4.411  -7.139  1.00  0.00    -0.166 F 
ENDBRANCH  14  18
ENDBRANCH   3  11
BRANCH   7  22
HETATM   22  C   UNL     1     -16.666 -12.886  -1.743  1.00  0.00     0.118 A 
HETATM   23  N   UNL     1     -17.337 -13.448  -0.701  1.00  0.00    -0.352 N 
HETATM   24  C   UNL     1     -16.700 -14.319   0.113  1.00  0.00     0.089 A 
ATOM     25  HN  UNL     1     -18.315 -13.213  -0.535  1.00  0.00     0.166 HD
HETATM   26  C   UNL     1     -15.386 -14.692  -0.046  1.00  0.00     0.018 A 
HETATM   27  C   UNL     1     -14.704 -14.140  -1.114  1.00  0.00     0.021 A 
HETATM   28  C   UNL     1     -15.340 -13.237  -1.996  1.00  0.00     0.091 A 
BRANCH  28  29
HETATM   29  C   UNL     1     -14.506 -12.794  -3.165  1.00  0.00     0.421 C 
HETATM   30  F   UNL     1     -14.450 -11.463  -3.435  1.00  0.00    -0.166 F 
HETATM   31  F   UNL     1     -13.204 -13.180  -3.025  1.00  0.00    -0.166 F 
HETATM   32  F   UNL     1     -14.924 -13.359  -4.335  1.00  0.00    -0.166 F 
ENDBRANCH  28  29
ENDBRANCH   7  22
TORSDOF 4
ENDMDL
MODEL 8
REMARK VINA RESULT:      -6.9     17.912     20.074
REMARK  4 active torsions:
REMARK  status: ('A' for Active; 'I' for Inactive)
REMARK       I    between atoms: C_2  and  N_3 
REMARK       I    between atoms: C_2  and  N_15 
REMARK    1  A    between atoms: N_3  and  C_4 
REMARK    2  A    between atoms: C_7  and  C_8 
REMARK    3  A    between atoms: N_18  and  C_19 
REMARK    4  A    between atoms: C_25  and  C_26 
ROOT
HETATM    1  O   UNL     1     -18.441  11.296   2.846  1.00  0.00    -0.247 OA
HETATM    2  C   UNL     1     -18.858  10.143   2.763  1.00  0.00     0.324 C 
HETATM    3  N   UNL     1     -18.123   9.031   3.101  1.00  0.00    -0.295 N 
HETATM    4  N   UNL     1     -20.112   9.853   2.275  1.00  0.00    -0.331 N 
HETATM    5  C   UNL     1     -20.849  10.858   1.485  1.00  0.00     0.147 C 
HETATM    6  C   UNL     1     -22.325  10.995   1.919  1.00  0.00     0.144 C 
HETATM    7  N   UNL     1     -22.907   9.635   1.962  1.00  0.00    -0.363 N 
HETATM    8  C   UNL     1     -22.239   8.803   2.974  1.00  0.00     0.144 C 
HETATM    9  C   UNL     1     -20.797   8.569   2.483  1.00  0.00     0.147 C 
HETATM   10  H   UNL     1     -18.177   8.274   2.437  1.00  0.00     0.172 HD
ENDROOT
BRANCH   3  11
HETATM   11  C   UNL     1     -16.874   9.116   3.707  1.00  0.00     0.108 A 
HETATM   12  C   UNL     1     -15.703   8.982   2.975  1.00  0.00     0.049 A 
HETATM   13  C   UNL     1     -14.487   9.043   3.647  1.00  0.00     0.021 A 
HETATM   14  C   UNL     1     -14.478   9.212   5.034  1.00  0.00     0.063 A 
HETATM   15  C   UNL     1     -15.702   9.369   5.669  1.00  0.00     0.106 A 
HETATM   16  N   UNL     1     -16.895   9.363   5.031  1.00  0.00    -0.351 N 
ATOM     17  HN  UNL     1     -17.768   9.537   5.530  1.00  0.00     0.166 HD
BRANCH  14  18
HETATM   18  C   UNL     1     -13.220   9.215   5.837  1.00  0.00     0.418 C 
HETATM   19  F   UNL     1     -13.055   8.097   6.598  1.00  0.00    -0.166 F 
HETATM   20  F   UNL     1     -12.104   9.303   5.060  1.00  0.00    -0.166 F 
HETATM   21  F   UNL     1     -13.155  10.268   6.700  1.00  0.00    -0.166 F 
ENDBRANCH  14  18
ENDBRANCH   3  11
BRANCH   7  22
HETATM   22  C   UNL     1     -24.240   9.449   1.677  1.00  0.00     0.118 A 
HETATM   23  N   UNL     1     -25.125  10.068   2.506  1.00  0.00    -0.352 N 
HETATM   24  C   UNL     1     -26.450   9.988   2.250  1.00  0.00     0.089 A 
ATOM     25  HN  UNL     1     -24.790  10.590   3.316  1.00  0.00     0.166 HD
HETATM   26  C   UNL     1     -26.982   9.311   1.178  1.00  0.00     0.018 A 
HETATM   27  C   UNL     1     -26.088   8.696   0.322  1.00  0.00     0.021 A 
HETATM   28  C   UNL     1     -24.695   8.770   0.547  1.00  0.00     0.091 A 
BRANCH  28  29
HETATM   29  C   UNL     1     -23.842   8.138  -0.517  1.00  0.00     0.421 C 
HETATM   30  F   UNL     1     -23.171   8.962  -1.365  1.00  0.00    -0.166 F 
HETATM   31  F   UNL     1     -22.883   7.333   0.025  1.00  0.00    -0.166 F 
HETATM   32  F   UNL     1     -24.569   7.326  -1.340  1.00  0.00    -0.166 F 
ENDBRANCH  28  29
ENDBRANCH   7  22
TORSDOF 4
ENDMDL
MODEL 9
REMARK VINA RESULT:      -6.8      4.034     11.084
REMARK  4 active torsions:
REMARK  status: ('A' for Active; 'I' for Inactive)
REMARK       I    between atoms: C_2  and  N_3 
REMARK       I    between atoms: C_2  and  N_15 
REMARK    1  A    between atoms: N_3  and  C_4 
REMARK    2  A    between atoms: C_7  and  C_8 
REMARK    3  A    between atoms: N_18  and  C_19 
REMARK    4  A    between atoms: C_25  and  C_26 
ROOT
HETATM    1  O   UNL     1     -20.818 -10.995   1.191  1.00  0.00    -0.247 OA
HETATM    2  C   UNL     1     -21.161 -11.442   0.099  1.00  0.00     0.324 C 
HETATM    3  N   UNL     1     -21.760 -12.667  -0.078  1.00  0.00    -0.295 N 
HETATM    4  N   UNL     1     -20.936 -10.758  -1.074  1.00  0.00    -0.331 N 
HETATM    5  C   UNL     1     -19.949  -9.662  -1.113  1.00  0.00     0.147 C 
HETATM    6  C   UNL     1     -20.475  -8.409  -1.847  1.00  0.00     0.144 C 
HETATM    7  N   UNL     1     -21.022  -8.850  -3.150  1.00  0.00    -0.363 N 
HETATM    8  C   UNL     1     -22.169  -9.751  -2.966  1.00  0.00     0.144 C 
HETATM    9  C   UNL     1     -21.625 -11.050  -2.339  1.00  0.00     0.147 C 
HETATM   10  H   UNL     1     -21.389 -13.209  -0.843  1.00  0.00     0.172 HD
ENDROOT
BRANCH   3  11
HETATM   11  C   UNL     1     -22.162 -13.464   0.989  1.00  0.00     0.108 A 
HETATM   12  C   UNL     1     -23.448 -13.390   1.505  1.00  0.00     0.049 A 
HETATM   13  C   UNL     1     -23.774 -14.189   2.595  1.00  0.00     0.021 A 
HETATM   14  C   UNL     1     -22.800 -15.022   3.150  1.00  0.00     0.063 A 
HETATM   15  C   UNL     1     -21.554 -15.047   2.541  1.00  0.00     0.106 A 
HETATM   16  N   UNL     1     -21.226 -14.317   1.450  1.00  0.00    -0.351 N 
ATOM     17  HN  UNL     1     -20.315 -14.407   1.000  1.00  0.00     0.166 HD
BRANCH  14  18
HETATM   18  C   UNL     1     -23.050 -15.856   4.364  1.00  0.00     0.418 C 
HETATM   19  F   UNL     1     -22.256 -16.960   4.441  1.00  0.00    -0.166 F 
HETATM   20  F   UNL     1     -22.844 -15.169   5.521  1.00  0.00    -0.166 F 
HETATM   21  F   UNL     1     -24.332 -16.313   4.427  1.00  0.00    -0.166 F 
ENDBRANCH  14  18
ENDBRANCH   3  11
BRANCH   7  22
HETATM   22  C   UNL     1     -20.963  -8.012  -4.239  1.00  0.00     0.118 A 
HETATM   23  N   UNL     1     -21.864  -6.991  -4.264  1.00  0.00    -0.352 N 
HETATM   24  C   UNL     1     -21.823  -6.087  -5.267  1.00  0.00     0.089 A 
ATOM     25  HN  UNL     1     -22.566  -6.910  -3.529  1.00  0.00     0.166 HD
HETATM   26  C   UNL     1     -20.906  -6.122  -6.291  1.00  0.00     0.018 A 
HETATM   27  C   UNL     1     -19.975  -7.144  -6.262  1.00  0.00     0.021 A 
HETATM   28  C   UNL     1     -19.976  -8.100  -5.221  1.00  0.00     0.091 A 
BRANCH  28  29
HETATM   29  C   UNL     1     -18.850  -9.094  -5.267  1.00  0.00     0.421 C 
HETATM   30  F   UNL     1     -19.169 -10.412  -5.358  1.00  0.00    -0.166 F 
HETATM   31  F   UNL     1     -18.020  -8.859  -6.325  1.00  0.00    -0.166 F 
HETATM   32  F   UNL     1     -18.052  -9.015  -4.162  1.00  0.00    -0.166 F 
ENDBRANCH  28  29
ENDBRANCH   7  22
TORSDOF 4
ENDMDL
