MODEL 1
REMARK VINA RESULT:      -6.1      0.000      0.000
REMARK  10 active torsions:
REMARK  status: ('A' for Active; 'I' for Inactive)
REMARK    1  A    between atoms: C_2  and  O_3 
REMARK    2  A    between atoms: O_3  and  C_4 
REMARK    3  A    between atoms: C_4  and  C_6 
REMARK    4  A    between atoms: C_7  and  C_8 
REMARK    5  A    between atoms: C_17  and  C_18 
REMARK    6  A    between atoms: C_18  and  S_20 
REMARK    7  A    between atoms: S_20  and  C_21 
REMARK    8  A    between atoms: C_21  and  C_22 
REMARK    9  A    between atoms: C_22  and  O_23 
REMARK   10  A    between atoms: C_25  and  C_26 
ROOT
HETATM    1  C   UNL     1     -21.006  -8.739  -3.889  1.00  0.00     0.053 C 
HETATM    2  C   UNL     1     -21.346  -7.446  -3.667  1.00  0.00     0.055 C 
HETATM    3  N   UNL     1     -21.763  -7.037  -2.422  1.00  0.00    -0.358 N 
HETATM    4  C   UNL     1     -21.984  -7.874  -1.337  1.00  0.00     0.017 C 
HETATM    5  C   UNL     1     -22.529  -7.139  -0.127  1.00  0.00     0.069 C 
HETATM    6  C   UNL     1     -21.688  -9.201  -1.418  1.00  0.00     0.030 C 
HETATM    7  C   UNL     1     -21.023  -9.757  -2.722  1.00  0.00     0.066 C 
HETATM    8  H   UNL     1     -21.968  -6.044  -2.325  1.00  0.00     0.166 HD
ENDROOT
BRANCH   6   9
HETATM    9  C   UNL     1     -21.929 -10.101  -0.214  1.00  0.00     0.217 C 
HETATM   10  O   UNL     1     -23.028 -10.565   0.063  1.00  0.00    -0.280 OA
BRANCH   9  11
HETATM   11  S   UNL     1     -20.577 -10.421   0.872  1.00  0.00    -0.085 SA
BRANCH  11  12
HETATM   12  C   UNL     1     -19.804 -11.910   0.133  1.00  0.00     0.108 C 
BRANCH  12  13
HETATM   13  C   UNL     1     -18.278 -12.032   0.215  1.00  0.00     0.177 C 
BRANCH  13  14
HETATM   14  O   UNL     1     -17.672 -11.737  -1.044  1.00  0.00    -0.395 OA
HETATM   15  C   UNL     1     -16.255 -11.636  -0.932  1.00  0.00     0.201 C 
ENDBRANCH  13  14
ENDBRANCH  12  13
ENDBRANCH  11  12
ENDBRANCH   9  11
ENDBRANCH   6   9
BRANCH   7  16
HETATM   16  C   UNL     1     -21.488 -11.169  -3.164  1.00  0.00     0.010 C 
HETATM   17  C   UNL     1     -22.944 -11.325  -3.538  1.00  0.00     0.006 C 
ENDBRANCH   7  16
BRANCH   1  18
HETATM   18  C   UNL     1     -20.529  -9.112  -5.255  1.00  0.00     0.292 C 
HETATM   19  O   UNL     1     -21.222  -9.572  -6.156  1.00  0.00    -0.259 OA
BRANCH  18  20
HETATM   20  O   UNL     1     -19.219  -8.860  -5.398  1.00  0.00    -0.318 OA
BRANCH  20  21
HETATM   21  C   UNL     1     -18.306  -9.950  -5.252  1.00  0.00     0.174 C 
HETATM   22  C   UNL     1     -17.406  -9.756  -4.049  1.00  0.00     0.034 C 
ENDBRANCH  20  21
ENDBRANCH  18  20
ENDBRANCH   1  18
BRANCH   2  23
HETATM   23  C   UNL     1     -21.318  -6.372  -4.683  1.00  0.00    -0.009 A 
HETATM   24  C   UNL     1     -22.396  -6.195  -5.568  1.00  0.00     0.014 A 
HETATM   25  C   UNL     1     -22.342  -5.211  -6.553  1.00  0.00     0.001 A 
HETATM   26  C   UNL     1     -21.226  -4.384  -6.661  1.00  0.00     0.000 A 
HETATM   27  C   UNL     1     -20.157  -4.538  -5.778  1.00  0.00     0.001 A 
HETATM   28  C   UNL     1     -20.202  -5.527  -4.793  1.00  0.00     0.014 A 
ENDBRANCH   2  23
TORSDOF 10
ENDMDL
MODEL 2
REMARK VINA RESULT:      -6.1      2.675      5.160
REMARK  10 active torsions:
REMARK  status: ('A' for Active; 'I' for Inactive)
REMARK    1  A    between atoms: C_2  and  O_3 
REMARK    2  A    between atoms: O_3  and  C_4 
REMARK    3  A    between atoms: C_4  and  C_6 
REMARK    4  A    between atoms: C_7  and  C_8 
REMARK    5  A    between atoms: C_17  and  C_18 
REMARK    6  A    between atoms: C_18  and  S_20 
REMARK    7  A    between atoms: S_20  and  C_21 
REMARK    8  A    between atoms: C_21  and  C_22 
REMARK    9  A    between atoms: C_22  and  O_23 
REMARK   10  A    between atoms: C_25  and  C_26 
ROOT
HETATM    1  C   UNL     1     -19.990 -10.479  -1.845  1.00  0.00     0.053 C 
HETATM    2  C   UNL     1     -19.592  -9.434  -2.610  1.00  0.00     0.055 C 
HETATM    3  N   UNL     1     -18.268  -9.279  -2.949  1.00  0.00    -0.358 N 
HETATM    4  C   UNL     1     -17.225 -10.065  -2.479  1.00  0.00     0.017 C 
HETATM    5  C   UNL     1     -15.867  -9.591  -2.961  1.00  0.00     0.069 C 
HETATM    6  C   UNL     1     -17.477 -11.150  -1.697  1.00  0.00     0.030 C 
HETATM    7  C   UNL     1     -18.962 -11.548  -1.397  1.00  0.00     0.066 C 
HETATM    8  H   UNL     1     -18.053  -8.489  -3.555  1.00  0.00     0.166 HD
ENDROOT
BRANCH   6   9
HETATM    9  C   UNL     1     -16.320 -12.005  -1.199  1.00  0.00     0.217 C 
HETATM   10  O   UNL     1     -15.603 -11.677  -0.262  1.00  0.00    -0.280 OA
BRANCH   9  11
HETATM   11  S   UNL     1     -15.950 -13.496  -2.066  1.00  0.00    -0.085 SA
BRANCH  11  12
HETATM   12  C   UNL     1     -14.548 -13.006  -3.140  1.00  0.00     0.108 C 
BRANCH  12  13
HETATM   13  C   UNL     1     -14.848 -12.733  -4.618  1.00  0.00     0.177 C 
BRANCH  13  14
HETATM   14  O   UNL     1     -13.752 -12.069  -5.249  1.00  0.00    -0.395 OA
HETATM   15  C   UNL     1     -13.304 -12.778  -6.402  1.00  0.00     0.201 C 
ENDBRANCH  13  14
ENDBRANCH  12  13
ENDBRANCH  11  12
ENDBRANCH   9  11
ENDBRANCH   6   9
BRANCH   7  16
HETATM   16  C   UNL     1     -19.239 -12.086   0.030  1.00  0.00     0.010 C 
HETATM   17  C   UNL     1     -19.740 -13.507   0.141  1.00  0.00     0.006 C 
ENDBRANCH   7  16
BRANCH   1  18
HETATM   18  C   UNL     1     -21.447 -10.609  -1.540  1.00  0.00     0.292 C 
HETATM   19  O   UNL     1     -22.278 -11.181  -2.238  1.00  0.00    -0.259 OA
BRANCH  18  20
HETATM   20  O   UNL     1     -21.751 -10.032  -0.368  1.00  0.00    -0.318 OA
BRANCH  20  21
HETATM   21  C   UNL     1     -23.074  -9.521  -0.195  1.00  0.00     0.174 C 
HETATM   22  C   UNL     1     -23.056  -8.159   0.469  1.00  0.00     0.034 C 
ENDBRANCH  20  21
ENDBRANCH  18  20
ENDBRANCH   1  18
BRANCH   2  23
HETATM   23  C   UNL     1     -20.484  -8.381  -3.143  1.00  0.00    -0.009 A 
HETATM   24  C   UNL     1     -20.871  -7.295  -2.339  1.00  0.00     0.014 A 
HETATM   25  C   UNL     1     -21.749  -6.333  -2.832  1.00  0.00     0.001 A 
HETATM   26  C   UNL     1     -22.240  -6.429  -4.132  1.00  0.00     0.000 A 
HETATM   27  C   UNL     1     -21.850  -7.492  -4.946  1.00  0.00     0.001 A 
HETATM   28  C   UNL     1     -20.976  -8.465  -4.456  1.00  0.00     0.014 A 
ENDBRANCH   2  23
TORSDOF 10
ENDMDL
MODEL 3
REMARK VINA RESULT:      -6.0      1.645      2.624
REMARK  10 active torsions:
REMARK  status: ('A' for Active; 'I' for Inactive)
REMARK    1  A    between atoms: C_2  and  O_3 
REMARK    2  A    between atoms: O_3  and  C_4 
REMARK    3  A    between atoms: C_4  and  C_6 
REMARK    4  A    between atoms: C_7  and  C_8 
REMARK    5  A    between atoms: C_17  and  C_18 
REMARK    6  A    between atoms: C_18  and  S_20 
REMARK    7  A    between atoms: S_20  and  C_21 
REMARK    8  A    between atoms: C_21  and  C_22 
REMARK    9  A    between atoms: C_22  and  O_23 
REMARK   10  A    between atoms: C_25  and  C_26 
ROOT
HETATM    1  C   UNL     1     -20.885  -8.748  -3.759  1.00  0.00     0.053 C 
HETATM    2  C   UNL     1     -21.300  -7.472  -3.570  1.00  0.00     0.055 C 
HETATM    3  N   UNL     1     -21.797  -7.071  -2.352  1.00  0.00    -0.358 N 
HETATM    4  C   UNL     1     -22.028  -7.906  -1.268  1.00  0.00     0.017 C 
HETATM    5  C   UNL     1     -22.667  -7.186  -0.095  1.00  0.00     0.069 C 
HETATM    6  C   UNL     1     -21.662  -9.216  -1.317  1.00  0.00     0.030 C 
HETATM    7  C   UNL     1     -20.908  -9.753  -2.580  1.00  0.00     0.066 C 
HETATM    8  H   UNL     1     -22.056  -6.089  -2.278  1.00  0.00     0.166 HD
ENDROOT
BRANCH   6   9
HETATM    9  C   UNL     1     -21.916 -10.115  -0.113  1.00  0.00     0.217 C 
HETATM   10  O   UNL     1     -21.066 -10.348   0.736  1.00  0.00    -0.280 OA
BRANCH   9  11
HETATM   11  S   UNL     1     -23.482 -10.916   0.013  1.00  0.00    -0.085 SA
BRANCH  11  12
HETATM   12  C   UNL     1     -23.034 -12.596   0.593  1.00  0.00     0.108 C 
BRANCH  12  13
HETATM   13  C   UNL     1     -23.093 -13.738  -0.429  1.00  0.00     0.177 C 
BRANCH  13  14
HETATM   14  O   UNL     1     -24.369 -13.787  -1.069  1.00  0.00    -0.395 OA
HETATM   15  C   UNL     1     -24.751 -15.125  -1.376  1.00  0.00     0.201 C 
ENDBRANCH  13  14
ENDBRANCH  12  13
ENDBRANCH  11  12
ENDBRANCH   9  11
ENDBRANCH   6   9
BRANCH   7  16
HETATM   16  C   UNL     1     -21.280 -11.191  -3.025  1.00  0.00     0.010 C 
HETATM   17  C   UNL     1     -22.679 -11.404  -3.555  1.00  0.00     0.006 C 
ENDBRANCH   7  16
BRANCH   1  18
HETATM   18  C   UNL     1     -20.325  -9.112  -5.095  1.00  0.00     0.292 C 
HETATM   19  O   UNL     1     -20.961  -9.567  -6.040  1.00  0.00    -0.259 OA
BRANCH  18  20
HETATM   20  O   UNL     1     -19.010  -8.856  -5.157  1.00  0.00    -0.318 OA
BRANCH  20  21
HETATM   21  C   UNL     1     -18.104  -9.934  -4.917  1.00  0.00     0.174 C 
HETATM   22  C   UNL     1     -17.275  -9.690  -3.673  1.00  0.00     0.034 C 
ENDBRANCH  20  21
ENDBRANCH  18  20
ENDBRANCH   1  18
BRANCH   2  23
HETATM   23  C   UNL     1     -21.277  -6.409  -4.599  1.00  0.00    -0.009 A 
HETATM   24  C   UNL     1     -22.337  -6.272  -5.512  1.00  0.00     0.014 A 
HETATM   25  C   UNL     1     -22.286  -5.299  -6.507  1.00  0.00     0.001 A 
HETATM   26  C   UNL     1     -21.192  -4.442  -6.598  1.00  0.00     0.000 A 
HETATM   27  C   UNL     1     -20.142  -4.555  -5.687  1.00  0.00     0.001 A 
HETATM   28  C   UNL     1     -20.183  -5.534  -4.691  1.00  0.00     0.014 A 
ENDBRANCH   2  23
TORSDOF 10
ENDMDL
MODEL 4
REMARK VINA RESULT:      -6.0      3.313      5.683
REMARK  10 active torsions:
REMARK  status: ('A' for Active; 'I' for Inactive)
REMARK    1  A    between atoms: C_2  and  O_3 
REMARK    2  A    between atoms: O_3  and  C_4 
REMARK    3  A    between atoms: C_4  and  C_6 
REMARK    4  A    between atoms: C_7  and  C_8 
REMARK    5  A    between atoms: C_17  and  C_18 
REMARK    6  A    between atoms: C_18  and  S_20 
REMARK    7  A    between atoms: S_20  and  C_21 
REMARK    8  A    between atoms: C_21  and  C_22 
REMARK    9  A    between atoms: C_22  and  O_23 
REMARK   10  A    between atoms: C_25  and  C_26 
ROOT
HETATM    1  C   UNL     1     -19.813  -9.518  -4.323  1.00  0.00     0.053 C 
HETATM    2  C   UNL     1     -19.521  -9.042  -3.089  1.00  0.00     0.055 C 
HETATM    3  N   UNL     1     -18.227  -9.050  -2.624  1.00  0.00    -0.358 N 
HETATM    4  C   UNL     1     -17.145  -9.620  -3.279  1.00  0.00     0.017 C 
HETATM    5  C   UNL     1     -15.863  -9.550  -2.472  1.00  0.00     0.069 C 
HETATM    6  C   UNL     1     -17.291 -10.140  -4.530  1.00  0.00     0.030 C 
HETATM    7  C   UNL     1     -18.677 -10.018  -5.250  1.00  0.00     0.066 C 
HETATM    8  H   UNL     1     -18.083  -8.645  -1.701  1.00  0.00     0.166 HD
ENDROOT
BRANCH   6   9
HETATM    9  C   UNL     1     -16.090 -10.753  -5.236  1.00  0.00     0.217 C 
HETATM   10  O   UNL     1     -15.497 -10.195  -6.150  1.00  0.00    -0.280 OA
BRANCH   9  11
HETATM   11  S   UNL     1     -15.586 -12.377  -4.766  1.00  0.00    -0.085 SA
BRANCH  11  12
HETATM   12  C   UNL     1     -13.800 -12.383  -5.179  1.00  0.00     0.108 C 
BRANCH  12  13
HETATM   13  C   UNL     1     -13.323 -13.369  -6.253  1.00  0.00     0.177 C 
BRANCH  13  14
HETATM   14  O   UNL     1     -13.118 -14.670  -5.699  1.00  0.00    -0.395 OA
HETATM   15  C   UNL     1     -13.891 -15.656  -6.378  1.00  0.00     0.201 C 
ENDBRANCH  13  14
ENDBRANCH  12  13
ENDBRANCH  11  12
ENDBRANCH   9  11
ENDBRANCH   6   9
BRANCH   7  16
HETATM   16  C   UNL     1     -19.097 -11.238  -6.110  1.00  0.00     0.010 C 
HETATM   17  C   UNL     1     -19.384 -12.527  -5.377  1.00  0.00     0.006 C 
ENDBRANCH   7  16
BRANCH   1  18
HETATM   18  C   UNL     1     -21.233  -9.450  -4.783  1.00  0.00     0.292 C 
HETATM   19  O   UNL     1     -22.185 -10.017  -4.256  1.00  0.00    -0.259 OA
BRANCH  18  20
HETATM   20  O   UNL     1     -21.359  -8.656  -5.856  1.00  0.00    -0.318 OA
BRANCH  20  21
HETATM   21  C   UNL     1     -21.560  -7.258  -5.637  1.00  0.00     0.174 C 
HETATM   22  C   UNL     1     -20.384  -6.448  -6.144  1.00  0.00     0.034 C 
ENDBRANCH  20  21
ENDBRANCH  18  20
ENDBRANCH   1  18
BRANCH   2  23
HETATM   23  C   UNL     1     -20.507  -8.490  -2.135  1.00  0.00    -0.009 A 
HETATM   24  C   UNL     1     -20.947  -9.250  -1.038  1.00  0.00     0.014 A 
HETATM   25  C   UNL     1     -21.911  -8.741  -0.170  1.00  0.00     0.001 A 
HETATM   26  C   UNL     1     -22.438  -7.467  -0.373  1.00  0.00     0.000 A 
HETATM   27  C   UNL     1     -21.997  -6.695  -1.448  1.00  0.00     0.001 A 
HETATM   28  C   UNL     1     -21.036  -7.203  -2.326  1.00  0.00     0.014 A 
ENDBRANCH   2  23
TORSDOF 10
ENDMDL
MODEL 5
REMARK VINA RESULT:      -5.8      3.163      5.922
REMARK  10 active torsions:
REMARK  status: ('A' for Active; 'I' for Inactive)
REMARK    1  A    between atoms: C_2  and  O_3 
REMARK    2  A    between atoms: O_3  and  C_4 
REMARK    3  A    between atoms: C_4  and  C_6 
REMARK    4  A    between atoms: C_7  and  C_8 
REMARK    5  A    between atoms: C_17  and  C_18 
REMARK    6  A    between atoms: C_18  and  S_20 
REMARK    7  A    between atoms: S_20  and  C_21 
REMARK    8  A    between atoms: C_21  and  C_22 
REMARK    9  A    between atoms: C_22  and  O_23 
REMARK   10  A    between atoms: C_25  and  C_26 
ROOT
HETATM    1  C   UNL     1     -19.740  -9.817  -2.916  1.00  0.00     0.053 C 
HETATM    2  C   UNL     1     -20.005 -10.168  -1.634  1.00  0.00     0.055 C 
HETATM    3  N   UNL     1     -19.122 -10.951  -0.927  1.00  0.00    -0.358 N 
HETATM    4  C   UNL     1     -17.978 -11.538  -1.448  1.00  0.00     0.017 C 
HETATM    5  C   UNL     1     -17.258 -12.419  -0.445  1.00  0.00     0.069 C 
HETATM    6  C   UNL     1     -17.589 -11.275  -2.727  1.00  0.00     0.030 C 
HETATM    7  C   UNL     1     -18.406 -10.244  -3.577  1.00  0.00     0.066 C 
HETATM    8  H   UNL     1     -19.374 -11.143   0.041  1.00  0.00     0.166 HD
ENDROOT
BRANCH   6   9
HETATM    9  C   UNL     1     -16.326 -11.922  -3.278  1.00  0.00     0.217 C 
HETATM   10  O   UNL     1     -15.253 -11.336  -3.350  1.00  0.00    -0.280 OA
BRANCH   9  11
HETATM   11  S   UNL     1     -16.439 -13.563  -3.914  1.00  0.00    -0.085 SA
BRANCH  11  12
HETATM   12  C   UNL     1     -15.609 -13.426  -5.544  1.00  0.00     0.108 C 
BRANCH  12  13
HETATM   13  C   UNL     1     -14.700 -14.582  -5.976  1.00  0.00     0.177 C 
BRANCH  13  14
HETATM   14  O   UNL     1     -13.388 -14.111  -6.292  1.00  0.00    -0.395 OA
HETATM   15  C   UNL     1     -13.343 -12.688  -6.353  1.00  0.00     0.201 C 
ENDBRANCH  13  14
ENDBRANCH  12  13
ENDBRANCH  11  12
ENDBRANCH   9  11
ENDBRANCH   6   9
BRANCH   7  16
HETATM   16  C   UNL     1     -18.565 -10.588  -5.081  1.00  0.00     0.010 C 
HETATM   17  C   UNL     1     -17.721  -9.800  -6.056  1.00  0.00     0.006 C 
ENDBRANCH   7  16
BRANCH   1  18
HETATM   18  C   UNL     1     -20.723  -8.937  -3.618  1.00  0.00     0.292 C 
HETATM   19  O   UNL     1     -21.719  -9.316  -4.225  1.00  0.00    -0.259 OA
BRANCH  18  20
HETATM   20  O   UNL     1     -20.396  -7.643  -3.488  1.00  0.00    -0.318 OA
BRANCH  20  21
HETATM   21  C   UNL     1     -21.414  -6.667  -3.718  1.00  0.00     0.174 C 
HETATM   22  C   UNL     1     -21.991  -6.156  -2.414  1.00  0.00     0.034 C 
ENDBRANCH  20  21
ENDBRANCH  18  20
ENDBRANCH   1  18
BRANCH   2  23
HETATM   23  C   UNL     1     -21.214  -9.778  -0.877  1.00  0.00    -0.009 A 
HETATM   24  C   UNL     1     -22.386 -10.552  -0.951  1.00  0.00     0.014 A 
HETATM   25  C   UNL     1     -23.535 -10.152  -0.273  1.00  0.00     0.001 A 
HETATM   26  C   UNL     1     -23.531  -8.991   0.496  1.00  0.00     0.000 A 
HETATM   27  C   UNL     1     -22.370  -8.224   0.592  1.00  0.00     0.001 A 
HETATM   28  C   UNL     1     -21.216  -8.615  -0.091  1.00  0.00     0.014 A 
ENDBRANCH   2  23
TORSDOF 10
ENDMDL
MODEL 6
REMARK VINA RESULT:      -5.7      3.006      5.537
REMARK  10 active torsions:
REMARK  status: ('A' for Active; 'I' for Inactive)
REMARK    1  A    between atoms: C_2  and  O_3 
REMARK    2  A    between atoms: O_3  and  C_4 
REMARK    3  A    between atoms: C_4  and  C_6 
REMARK    4  A    between atoms: C_7  and  C_8 
REMARK    5  A    between atoms: C_17  and  C_18 
REMARK    6  A    between atoms: C_18  and  S_20 
REMARK    7  A    between atoms: S_20  and  C_21 
REMARK    8  A    between atoms: C_21  and  C_22 
REMARK    9  A    between atoms: C_22  and  O_23 
REMARK   10  A    between atoms: C_25  and  C_26 
ROOT
HETATM    1  C   UNL     1     -20.354 -10.835  -2.994  1.00  0.00     0.053 C 
HETATM    2  C   UNL     1     -19.913  -9.602  -2.645  1.00  0.00     0.055 C 
HETATM    3  N   UNL     1     -18.572  -9.302  -2.681  1.00  0.00    -0.358 N 
HETATM    4  C   UNL     1     -17.556 -10.209  -2.952  1.00  0.00     0.017 C 
HETATM    5  C   UNL     1     -16.173  -9.599  -2.828  1.00  0.00     0.069 C 
HETATM    6  C   UNL     1     -17.852 -11.488  -3.316  1.00  0.00     0.030 C 
HETATM    7  C   UNL     1     -19.352 -11.902  -3.500  1.00  0.00     0.066 C 
HETATM    8  H   UNL     1     -18.322  -8.346  -2.438  1.00  0.00     0.166 HD
ENDROOT
BRANCH   6   9
HETATM    9  C   UNL     1     -16.725 -12.465  -3.618  1.00  0.00     0.217 C 
HETATM   10  O   UNL     1     -16.209 -13.174  -2.762  1.00  0.00    -0.280 OA
BRANCH   9  11
HETATM   11  S   UNL     1     -16.082 -12.516  -5.259  1.00  0.00    -0.085 SA
BRANCH  11  12
HETATM   12  C   UNL     1     -17.480 -13.206  -6.223  1.00  0.00     0.108 C 
BRANCH  12  13
HETATM   13  C   UNL     1     -17.716 -12.648  -7.631  1.00  0.00     0.177 C 
BRANCH  13  14
HETATM   14  O   UNL     1     -18.769 -11.683  -7.630  1.00  0.00    -0.395 OA
HETATM   15  C   UNL     1     -19.978 -12.227  -7.107  1.00  0.00     0.201 C 
ENDBRANCH  13  14
ENDBRANCH  12  13
ENDBRANCH  11  12
ENDBRANCH   9  11
ENDBRANCH   6   9
BRANCH   7  16
HETATM   16  C   UNL     1     -19.715 -13.335  -3.034  1.00  0.00     0.010 C 
HETATM   17  C   UNL     1     -20.337 -14.253  -4.062  1.00  0.00     0.006 C 
ENDBRANCH   7  16
BRANCH   1  18
HETATM   18  C   UNL     1     -21.826 -11.086  -2.966  1.00  0.00     0.292 C 
HETATM   19  O   UNL     1     -22.595 -10.955  -3.913  1.00  0.00    -0.259 OA
BRANCH  18  20
HETATM   20  O   UNL     1     -22.224 -11.508  -1.757  1.00  0.00    -0.318 OA
BRANCH  20  21
HETATM   21  C   UNL     1     -23.625 -11.517  -1.476  1.00  0.00     0.174 C 
HETATM   22  C   UNL     1     -23.923 -10.870  -0.139  1.00  0.00     0.034 C 
ENDBRANCH  20  21
ENDBRANCH  18  20
ENDBRANCH   1  18
BRANCH   2  23
HETATM   23  C   UNL     1     -20.775  -8.485  -2.200  1.00  0.00    -0.009 A 
HETATM   24  C   UNL     1     -21.125  -7.453  -3.086  1.00  0.00     0.014 A 
HETATM   25  C   UNL     1     -21.897  -6.380  -2.646  1.00  0.00     0.001 A 
HETATM   26  C   UNL     1     -22.343  -6.328  -1.328  1.00  0.00     0.000 A 
HETATM   27  C   UNL     1     -22.017  -7.355  -0.442  1.00  0.00     0.001 A 
HETATM   28  C   UNL     1     -21.237  -8.430  -0.874  1.00  0.00     0.014 A 
ENDBRANCH   2  23
TORSDOF 10
ENDMDL
MODEL 7
REMARK VINA RESULT:      -5.7      3.423      5.770
REMARK  10 active torsions:
REMARK  status: ('A' for Active; 'I' for Inactive)
REMARK    1  A    between atoms: C_2  and  O_3 
REMARK    2  A    between atoms: O_3  and  C_4 
REMARK    3  A    between atoms: C_4  and  C_6 
REMARK    4  A    between atoms: C_7  and  C_8 
REMARK    5  A    between atoms: C_17  and  C_18 
REMARK    6  A    between atoms: C_18  and  S_20 
REMARK    7  A    between atoms: S_20  and  C_21 
REMARK    8  A    between atoms: C_21  and  C_22 
REMARK    9  A    between atoms: C_22  and  O_23 
REMARK   10  A    between atoms: C_25  and  C_26 
ROOT
HETATM    1  C   UNL     1     -20.595 -10.838  -2.969  1.00  0.00     0.053 C 
HETATM    2  C   UNL     1     -20.123  -9.790  -2.252  1.00  0.00     0.055 C 
HETATM    3  N   UNL     1     -18.808  -9.402  -2.362  1.00  0.00    -0.358 N 
HETATM    4  C   UNL     1     -17.835 -10.072  -3.090  1.00  0.00     0.017 C 
HETATM    5  C   UNL     1     -16.458  -9.453  -2.943  1.00  0.00     0.069 C 
HETATM    6  C   UNL     1     -18.166 -11.147  -3.858  1.00  0.00     0.030 C 
HETATM    7  C   UNL     1     -19.669 -11.572  -3.971  1.00  0.00     0.066 C 
HETATM    8  H   UNL     1     -18.537  -8.585  -1.817  1.00  0.00     0.166 HD
ENDROOT
BRANCH   6   9
HETATM    9  C   UNL     1     -17.085 -11.863  -4.656  1.00  0.00     0.217 C 
HETATM   10  O   UNL     1     -16.871 -11.639  -5.841  1.00  0.00    -0.280 OA
BRANCH   9  11
HETATM   11  S   UNL     1     -16.157 -13.130  -3.854  1.00  0.00    -0.085 SA
BRANCH  11  12
HETATM   12  C   UNL     1     -14.438 -12.502  -3.955  1.00  0.00     0.108 C 
BRANCH  12  13
HETATM   13  C   UNL     1     -13.318 -13.531  -4.149  1.00  0.00     0.177 C 
BRANCH  13  14
HETATM   14  O   UNL     1     -13.233 -13.944  -5.514  1.00  0.00    -0.395 OA
HETATM   15  C   UNL     1     -13.319 -12.834  -6.404  1.00  0.00     0.201 C 
ENDBRANCH  13  14
ENDBRANCH  12  13
ENDBRANCH  11  12
ENDBRANCH   9  11
ENDBRANCH   6   9
BRANCH   7  16
HETATM   16  C   UNL     1     -19.935 -13.098  -4.026  1.00  0.00     0.010 C 
HETATM   17  C   UNL     1     -20.515 -13.647  -5.308  1.00  0.00     0.006 C 
ENDBRANCH   7  16
BRANCH   1  18
HETATM   18  C   UNL     1     -22.041 -11.187  -2.830  1.00  0.00     0.292 C 
HETATM   19  O   UNL     1     -22.932 -10.878  -3.615  1.00  0.00    -0.259 OA
BRANCH  18  20
HETATM   20  O   UNL     1     -22.261 -11.919  -1.728  1.00  0.00    -0.318 OA
BRANCH  20  21
HETATM   21  C   UNL     1     -23.613 -12.116  -1.312  1.00  0.00     0.174 C 
HETATM   22  C   UNL     1     -24.024 -11.090  -0.275  1.00  0.00     0.034 C 
ENDBRANCH  20  21
ENDBRANCH  18  20
ENDBRANCH   1  18
BRANCH   2  23
HETATM   23  C   UNL     1     -20.920  -8.978  -1.307  1.00  0.00    -0.009 A 
HETATM   24  C   UNL     1     -21.672  -7.881  -1.762  1.00  0.00     0.014 A 
HETATM   25  C   UNL     1     -22.382  -7.092  -0.859  1.00  0.00     0.001 A 
HETATM   26  C   UNL     1     -22.366  -7.392   0.501  1.00  0.00     0.000 A 
HETATM   27  C   UNL     1     -21.638  -8.488   0.964  1.00  0.00     0.001 A 
HETATM   28  C   UNL     1     -20.918  -9.278   0.065  1.00  0.00     0.014 A 
ENDBRANCH   2  23
TORSDOF 10
ENDMDL
MODEL 8
REMARK VINA RESULT:      -5.7      2.733      4.933
REMARK  10 active torsions:
REMARK  status: ('A' for Active; 'I' for Inactive)
REMARK    1  A    between atoms: C_2  and  O_3 
REMARK    2  A    between atoms: O_3  and  C_4 
REMARK    3  A    between atoms: C_4  and  C_6 
REMARK    4  A    between atoms: C_7  and  C_8 
REMARK    5  A    between atoms: C_17  and  C_18 
REMARK    6  A    between atoms: C_18  and  S_20 
REMARK    7  A    between atoms: S_20  and  C_21 
REMARK    8  A    between atoms: C_21  and  C_22 
REMARK    9  A    between atoms: C_22  and  O_23 
REMARK   10  A    between atoms: C_25  and  C_26 
ROOT
HETATM    1  C   UNL     1     -20.211 -10.754  -3.175  1.00  0.00     0.053 C 
HETATM    2  C   UNL     1     -19.775  -9.573  -2.675  1.00  0.00     0.055 C 
HETATM    3  N   UNL     1     -18.432  -9.277  -2.648  1.00  0.00    -0.358 N 
HETATM    4  C   UNL     1     -17.414 -10.151  -3.002  1.00  0.00     0.017 C 
HETATM    5  C   UNL     1     -16.032  -9.566  -2.778  1.00  0.00     0.069 C 
HETATM    6  C   UNL     1     -17.704 -11.377  -3.518  1.00  0.00     0.030 C 
HETATM    7  C   UNL     1     -19.200 -11.760  -3.781  1.00  0.00     0.066 C 
HETATM    8  H   UNL     1     -18.186  -8.356  -2.290  1.00  0.00     0.166 HD
ENDROOT
BRANCH   6   9
HETATM    9  C   UNL     1     -16.573 -12.318  -3.908  1.00  0.00     0.217 C 
HETATM   10  O   UNL     1     -16.339 -12.636  -5.067  1.00  0.00    -0.280 OA
BRANCH   9  11
HETATM   11  S   UNL     1     -15.609 -13.041  -2.620  1.00  0.00    -0.085 SA
BRANCH  11  12
HETATM   12  C   UNL     1     -16.867 -13.443  -1.348  1.00  0.00     0.108 C 
BRANCH  12  13
HETATM   13  C   UNL     1     -16.782 -12.701  -0.008  1.00  0.00     0.177 C 
BRANCH  13  14
HETATM   14  O   UNL     1     -17.795 -11.697   0.086  1.00  0.00    -0.395 OA
HETATM   15  C   UNL     1     -19.101 -12.265   0.040  1.00  0.00     0.201 C 
ENDBRANCH  13  14
ENDBRANCH  12  13
ENDBRANCH  11  12
ENDBRANCH   9  11
ENDBRANCH   6   9
BRANCH   7  16
HETATM   16  C   UNL     1     -19.577 -13.236  -3.493  1.00  0.00     0.010 C 
HETATM   17  C   UNL     1     -19.820 -14.127  -4.689  1.00  0.00     0.006 C 
ENDBRANCH   7  16
BRANCH   1  18
HETATM   18  C   UNL     1     -21.684 -11.000  -3.207  1.00  0.00     0.292 C 
HETATM   19  O   UNL     1     -22.419 -10.831  -4.175  1.00  0.00    -0.259 OA
BRANCH  18  20
HETATM   20  O   UNL     1     -22.125 -11.465  -2.029  1.00  0.00    -0.318 OA
BRANCH  20  21
HETATM   21  C   UNL     1     -23.506 -11.284  -1.710  1.00  0.00     0.174 C 
HETATM   22  C   UNL     1     -23.709 -11.119  -0.218  1.00  0.00     0.034 C 
ENDBRANCH  20  21
ENDBRANCH  18  20
ENDBRANCH   1  18
BRANCH   2  23
HETATM   23  C   UNL     1     -20.644  -8.511  -2.121  1.00  0.00    -0.009 A 
HETATM   24  C   UNL     1     -21.068  -8.560  -0.782  1.00  0.00     0.014 A 
HETATM   25  C   UNL     1     -21.925  -7.582  -0.280  1.00  0.00     0.001 A 
HETATM   26  C   UNL     1     -22.355  -6.538  -1.096  1.00  0.00     0.000 A 
HETATM   27  C   UNL     1     -21.927  -6.469  -2.422  1.00  0.00     0.001 A 
HETATM   28  C   UNL     1     -21.075  -7.450  -2.933  1.00  0.00     0.014 A 
ENDBRANCH   2  23
TORSDOF 10
ENDMDL
MODEL 9
REMARK VINA RESULT:      -5.4      3.133      5.590
REMARK  10 active torsions:
REMARK  status: ('A' for Active; 'I' for Inactive)
REMARK    1  A    between atoms: C_2  and  O_3 
REMARK    2  A    between atoms: O_3  and  C_4 
REMARK    3  A    between atoms: C_4  and  C_6 
REMARK    4  A    between atoms: C_7  and  C_8 
REMARK    5  A    between atoms: C_17  and  C_18 
REMARK    6  A    between atoms: C_18  and  S_20 
REMARK    7  A    between atoms: S_20  and  C_21 
REMARK    8  A    between atoms: C_21  and  C_22 
REMARK    9  A    between atoms: C_22  and  O_23 
REMARK   10  A    between atoms: C_25  and  C_26 
ROOT
HETATM    1  C   UNL     1     -20.067 -10.834  -3.100  1.00  0.00     0.053 C 
HETATM    2  C   UNL     1     -19.673  -9.615  -2.660  1.00  0.00     0.055 C 
HETATM    3  N   UNL     1     -18.345  -9.257  -2.682  1.00  0.00    -0.358 N 
HETATM    4  C   UNL     1     -17.297 -10.098  -3.027  1.00  0.00     0.017 C 
HETATM    5  C   UNL     1     -15.938  -9.443  -2.866  1.00  0.00     0.069 C 
HETATM    6  C   UNL     1     -17.543 -11.356  -3.486  1.00  0.00     0.030 C 
HETATM    7  C   UNL     1     -19.026 -11.817  -3.692  1.00  0.00     0.066 C 
HETATM    8  H   UNL     1     -18.133  -8.312  -2.368  1.00  0.00     0.166 HD
ENDROOT
BRANCH   6   9
HETATM    9  C   UNL     1     -16.380 -12.260  -3.869  1.00  0.00     0.217 C 
HETATM   10  O   UNL     1     -15.809 -12.989  -3.067  1.00  0.00    -0.280 OA
BRANCH   9  11
HETATM   11  S   UNL     1     -15.779 -12.190  -5.526  1.00  0.00    -0.085 SA
BRANCH  11  12
HETATM   12  C   UNL     1     -16.100 -13.885  -6.147  1.00  0.00     0.108 C 
BRANCH  12  13
HETATM   13  C   UNL     1     -17.085 -14.039  -7.312  1.00  0.00     0.177 C 
BRANCH  13  14
HETATM   14  O   UNL     1     -17.426 -12.767  -7.865  1.00  0.00    -0.395 OA
HETATM   15  C   UNL     1     -18.663 -12.818  -8.572  1.00  0.00     0.201 C 
ENDBRANCH  13  14
ENDBRANCH  12  13
ENDBRANCH  11  12
ENDBRANCH   9  11
ENDBRANCH   6   9
BRANCH   7  16
HETATM   16  C   UNL     1     -19.326 -13.296  -3.334  1.00  0.00     0.010 C 
HETATM   17  C   UNL     1     -19.481 -14.261  -4.487  1.00  0.00     0.006 C 
ENDBRANCH   7  16
BRANCH   1  18
HETATM   18  C   UNL     1     -21.527 -11.148  -3.081  1.00  0.00     0.292 C 
HETATM   19  O   UNL     1     -22.159 -11.567  -2.117  1.00  0.00    -0.259 OA
BRANCH  18  20
HETATM   20  O   UNL     1     -22.094 -10.891  -4.269  1.00  0.00    -0.318 OA
BRANCH  20  21
HETATM   21  C   UNL     1     -22.385 -11.996  -5.127  1.00  0.00     0.174 C 
HETATM   22  C   UNL     1     -21.643 -11.881  -6.443  1.00  0.00     0.034 C 
ENDBRANCH  20  21
ENDBRANCH  18  20
ENDBRANCH   1  18
BRANCH   2  23
HETATM   23  C   UNL     1     -20.575  -8.571  -2.125  1.00  0.00    -0.009 A 
HETATM   24  C   UNL     1     -21.017  -8.622  -0.791  1.00  0.00     0.014 A 
HETATM   25  C   UNL     1     -21.904  -7.662  -0.308  1.00  0.00     0.001 A 
HETATM   26  C   UNL     1     -22.350  -6.635  -1.137  1.00  0.00     0.000 A 
HETATM   27  C   UNL     1     -21.906  -6.564  -2.457  1.00  0.00     0.001 A 
HETATM   28  C   UNL     1     -21.022  -7.527  -2.951  1.00  0.00     0.014 A 
ENDBRANCH   2  23
TORSDOF 10
ENDMDL
