MODEL 1
REMARK VINA RESULT:      -7.7      0.000      0.000
REMARK  10 active torsions:
REMARK  status: ('A' for Active; 'I' for Inactive)
REMARK    1  A    between atoms: O_2  and  C_3 
REMARK    2  A    between atoms: C_5  and  C_6 
REMARK    3  A    between atoms: C_6  and  N_7 
REMARK       I    between atoms: N_7  and  C_8 
REMARK    4  A    between atoms: C_8  and  C_10 
REMARK    5  A    between atoms: C_10  and  C_11 
REMARK    6  A    between atoms: C_11  and  C_12 
REMARK    7  A    between atoms: C_12  and  C_13 
REMARK    8  A    between atoms: C_13  and  C_14 
REMARK    9  A    between atoms: C_15  and  C_16 
REMARK   10  A    between atoms: C_21  and  O_22 
ROOT
HETATM    1  N   UNL     1     -20.237  -5.755  -8.045  1.00  0.00    -0.357 N 
HETATM    2  C   UNL     1     -19.967  -5.598  -6.712  1.00  0.00     0.217 C 
HETATM    3  O   UNL     1     -19.854  -4.492  -6.166  1.00  0.00    -0.274 OA
HETATM    4  H   UNL     1     -20.323  -6.695  -8.412  1.00  0.00     0.162 HD
ENDROOT
BRANCH   1   5
HETATM    5  C   UNL     1     -20.395  -4.616  -8.919  1.00  0.00     0.161 C 
BRANCH   5   6
HETATM    6  C   UNL     1     -21.830  -4.193  -9.148  1.00  0.00    -0.038 A 
HETATM    7  C   UNL     1     -22.260  -3.639 -10.365  1.00  0.00     0.048 A 
HETATM    8  C   UNL     1     -23.602  -3.281 -10.576  1.00  0.00     0.101 A 
HETATM    9  C   UNL     1     -24.523  -3.486  -9.546  1.00  0.00     0.099 A 
HETATM   10  C   UNL     1     -24.123  -4.047  -8.332  1.00  0.00     0.040 A 
HETATM   11  C   UNL     1     -22.783  -4.402  -8.144  1.00  0.00     0.012 A 
BRANCH   8  12
HETATM   12  O   UNL     1     -24.079  -2.731 -11.740  1.00  0.00    -0.353 OA
HETATM   13  C   UNL     1     -23.115  -2.193 -12.637  1.00  0.00     0.210 C 
ENDBRANCH   8  12
BRANCH   9  14
HETATM   14  O   UNL     1     -25.832  -3.129  -9.734  1.00  0.00    -0.358 OA
HETATM   15  H   UNL     1     -25.909  -2.609 -10.547  1.00  0.00     0.217 HD
ENDBRANCH   9  14
ENDBRANCH   5   6
ENDBRANCH   1   5
BRANCH   2  16
HETATM   16  C   UNL     1     -19.819  -6.905  -5.966  1.00  0.00     0.103 C 
BRANCH  16  17
HETATM   17  C   UNL     1     -21.136  -7.329  -5.326  1.00  0.00     0.010 C 
BRANCH  17  18
HETATM   18  C   UNL     1     -20.936  -7.912  -3.928  1.00  0.00     0.004 C 
BRANCH  18  19
HETATM   19  C   UNL     1     -21.176  -6.836  -2.868  1.00  0.00     0.027 C 
BRANCH  19  20
HETATM   20  C   UNL     1     -21.938  -7.384  -1.700  1.00  0.00    -0.030 C 
HETATM   21  C   UNL     1     -21.489  -8.398  -0.943  1.00  0.00    -0.027 C 
BRANCH  21  22
HETATM   22  C   UNL     1     -22.268  -8.974   0.212  1.00  0.00    -0.001 C 
HETATM   23  C   UNL     1     -23.243  -7.943   0.784  1.00  0.00     0.013 C 
HETATM   24  C   UNL     1     -23.027 -10.227  -0.221  1.00  0.00     0.013 C 
ENDBRANCH  21  22
ENDBRANCH  19  20
ENDBRANCH  18  19
ENDBRANCH  17  18
ENDBRANCH  16  17
ENDBRANCH   2  16
TORSDOF 10
ENDMDL
MODEL 2
REMARK VINA RESULT:      -7.5      1.762      2.624
REMARK  10 active torsions:
REMARK  status: ('A' for Active; 'I' for Inactive)
REMARK    1  A    between atoms: O_2  and  C_3 
REMARK    2  A    between atoms: C_5  and  C_6 
REMARK    3  A    between atoms: C_6  and  N_7 
REMARK       I    between atoms: N_7  and  C_8 
REMARK    4  A    between atoms: C_8  and  C_10 
REMARK    5  A    between atoms: C_10  and  C_11 
REMARK    6  A    between atoms: C_11  and  C_12 
REMARK    7  A    between atoms: C_12  and  C_13 
REMARK    8  A    between atoms: C_13  and  C_14 
REMARK    9  A    between atoms: C_15  and  C_16 
REMARK   10  A    between atoms: C_21  and  O_22 
ROOT
HETATM    1  N   UNL     1     -20.550  -6.268  -5.481  1.00  0.00    -0.357 N 
HETATM    2  C   UNL     1     -21.686  -6.865  -5.006  1.00  0.00     0.217 C 
HETATM    3  O   UNL     1     -22.735  -6.247  -4.779  1.00  0.00    -0.274 OA
HETATM    4  H   UNL     1     -19.735  -6.847  -5.650  1.00  0.00     0.162 HD
ENDROOT
BRANCH   1   5
HETATM    5  C   UNL     1     -20.497  -4.848  -5.737  1.00  0.00     0.161 C 
BRANCH   5   6
HETATM    6  C   UNL     1     -20.877  -4.448  -7.146  1.00  0.00    -0.038 A 
HETATM    7  C   UNL     1     -22.202  -4.150  -7.505  1.00  0.00     0.048 A 
HETATM    8  C   UNL     1     -22.537  -3.747  -8.809  1.00  0.00     0.101 A 
HETATM    9  C   UNL     1     -21.522  -3.644  -9.763  1.00  0.00     0.099 A 
HETATM   10  C   UNL     1     -20.196  -3.923  -9.428  1.00  0.00     0.040 A 
HETATM   11  C   UNL     1     -19.882  -4.316  -8.122  1.00  0.00     0.012 A 
BRANCH   8  12
HETATM   12  O   UNL     1     -23.813  -3.449  -9.220  1.00  0.00    -0.353 OA
HETATM   13  C   UNL     1     -24.571  -4.514  -9.779  1.00  0.00     0.210 C 
ENDBRANCH   8  12
BRANCH   9  14
HETATM   14  O   UNL     1     -21.837  -3.265 -11.042  1.00  0.00    -0.358 OA
HETATM   15  H   UNL     1     -22.137  -4.040 -11.540  1.00  0.00     0.217 HD
ENDBRANCH   9  14
ENDBRANCH   5   6
ENDBRANCH   1   5
BRANCH   2  16
HETATM   16  C   UNL     1     -21.541  -8.354  -4.784  1.00  0.00     0.103 C 
BRANCH  16  17
HETATM   17  C   UNL     1     -20.083  -8.742  -4.568  1.00  0.00     0.010 C 
BRANCH  17  18
HETATM   18  C   UNL     1     -19.826  -9.255  -3.152  1.00  0.00     0.004 C 
BRANCH  18  19
HETATM   19  C   UNL     1     -19.856  -8.096  -2.156  1.00  0.00     0.027 C 
BRANCH  19  20
HETATM   20  C   UNL     1     -21.018  -8.215  -1.218  1.00  0.00    -0.030 C 
HETATM   21  C   UNL     1     -21.370  -9.370  -0.630  1.00  0.00    -0.027 C 
BRANCH  21  22
HETATM   22  C   UNL     1     -22.558  -9.501   0.287  1.00  0.00    -0.001 C 
HETATM   23  C   UNL     1     -23.188  -8.135   0.568  1.00  0.00     0.013 C 
HETATM   24  C   UNL     1     -23.600 -10.445  -0.311  1.00  0.00     0.013 C 
ENDBRANCH  21  22
ENDBRANCH  19  20
ENDBRANCH  18  19
ENDBRANCH  17  18
ENDBRANCH  16  17
ENDBRANCH   2  16
TORSDOF 10
ENDMDL
MODEL 3
REMARK VINA RESULT:      -7.1     13.044     15.503
REMARK  10 active torsions:
REMARK  status: ('A' for Active; 'I' for Inactive)
REMARK    1  A    between atoms: O_2  and  C_3 
REMARK    2  A    between atoms: C_5  and  C_6 
REMARK    3  A    between atoms: C_6  and  N_7 
REMARK       I    between atoms: N_7  and  C_8 
REMARK    4  A    between atoms: C_8  and  C_10 
REMARK    5  A    between atoms: C_10  and  C_11 
REMARK    6  A    between atoms: C_11  and  C_12 
REMARK    7  A    between atoms: C_12  and  C_13 
REMARK    8  A    between atoms: C_13  and  C_14 
REMARK    9  A    between atoms: C_15  and  C_16 
REMARK   10  A    between atoms: C_21  and  O_22 
ROOT
HETATM    1  N   UNL     1     -32.980  -4.516 -15.504  1.00  0.00    -0.357 N 
HETATM    2  C   UNL     1     -32.543  -4.026 -16.706  1.00  0.00     0.217 C 
HETATM    3  O   UNL     1     -33.163  -3.178 -17.361  1.00  0.00    -0.274 OA
HETATM    4  H   UNL     1     -32.408  -5.202 -15.026  1.00  0.00     0.162 HD
ENDROOT
BRANCH   1   5
HETATM    5  C   UNL     1     -34.226  -4.077 -14.922  1.00  0.00     0.161 C 
BRANCH   5   6
HETATM    6  C   UNL     1     -34.091  -3.424 -13.563  1.00  0.00    -0.038 A 
HETATM    7  C   UNL     1     -34.750  -2.226 -13.242  1.00  0.00     0.048 A 
HETATM    8  C   UNL     1     -34.643  -1.649 -11.966  1.00  0.00     0.101 A 
HETATM    9  C   UNL     1     -33.861  -2.288 -11.001  1.00  0.00     0.099 A 
HETATM   10  C   UNL     1     -33.206  -3.486 -11.292  1.00  0.00     0.040 A 
HETATM   11  C   UNL     1     -33.331  -4.049 -12.567  1.00  0.00     0.012 A 
BRANCH   8  12
HETATM   12  O   UNL     1     -35.258  -0.478 -11.595  1.00  0.00    -0.353 OA
HETATM   13  C   UNL     1     -36.605  -0.300 -12.016  1.00  0.00     0.210 C 
ENDBRANCH   8  12
BRANCH   9  14
HETATM   14  O   UNL     1     -33.737  -1.728  -9.757  1.00  0.00    -0.358 OA
HETATM   15  H   UNL     1     -34.355  -0.987  -9.676  1.00  0.00     0.217 HD
ENDBRANCH   9  14
ENDBRANCH   5   6
ENDBRANCH   1   5
BRANCH   2  16
HETATM   16  C   UNL     1     -31.227  -4.618 -17.158  1.00  0.00     0.103 C 
BRANCH  16  17
HETATM   17  C   UNL     1     -31.294  -6.140 -17.212  1.00  0.00     0.010 C 
BRANCH  17  18
HETATM   18  C   UNL     1     -29.977  -6.760 -17.677  1.00  0.00     0.004 C 
BRANCH  18  19
HETATM   19  C   UNL     1     -29.176  -5.747 -18.495  1.00  0.00     0.027 C 
BRANCH  19  20
HETATM   20  C   UNL     1     -27.817  -6.276 -18.837  1.00  0.00    -0.030 C 
HETATM   21  C   UNL     1     -27.289  -6.198 -20.068  1.00  0.00    -0.027 C 
BRANCH  21  22
HETATM   22  C   UNL     1     -25.936  -6.761 -20.424  1.00  0.00    -0.001 C 
HETATM   23  C   UNL     1     -25.054  -6.894 -19.181  1.00  0.00     0.013 C 
HETATM   24  C   UNL     1     -26.080  -8.117 -21.112  1.00  0.00     0.013 C 
ENDBRANCH  21  22
ENDBRANCH  19  20
ENDBRANCH  18  19
ENDBRANCH  17  18
ENDBRANCH  16  17
ENDBRANCH   2  16
TORSDOF 10
ENDMDL
MODEL 4
REMARK VINA RESULT:      -7.0     12.267     15.052
REMARK  10 active torsions:
REMARK  status: ('A' for Active; 'I' for Inactive)
REMARK    1  A    between atoms: O_2  and  C_3 
REMARK    2  A    between atoms: C_5  and  C_6 
REMARK    3  A    between atoms: C_6  and  N_7 
REMARK       I    between atoms: N_7  and  C_8 
REMARK    4  A    between atoms: C_8  and  C_10 
REMARK    5  A    between atoms: C_10  and  C_11 
REMARK    6  A    between atoms: C_11  and  C_12 
REMARK    7  A    between atoms: C_12  and  C_13 
REMARK    8  A    between atoms: C_13  and  C_14 
REMARK    9  A    between atoms: C_15  and  C_16 
REMARK   10  A    between atoms: C_21  and  O_22 
ROOT
HETATM    1  N   UNL     1     -33.062  -4.648 -14.984  1.00  0.00    -0.357 N 
HETATM    2  C   UNL     1     -34.038  -3.896 -14.386  1.00  0.00     0.217 C 
HETATM    3  O   UNL     1     -34.634  -2.975 -14.959  1.00  0.00    -0.274 OA
HETATM    4  H   UNL     1     -32.629  -5.391 -14.448  1.00  0.00     0.162 HD
ENDROOT
BRANCH   1   5
HETATM    5  C   UNL     1     -32.647  -4.396 -16.344  1.00  0.00     0.161 C 
BRANCH   5   6
HETATM    6  C   UNL     1     -31.738  -5.454 -16.930  1.00  0.00    -0.038 A 
HETATM    7  C   UNL     1     -30.345  -5.425 -16.747  1.00  0.00     0.048 A 
HETATM    8  C   UNL     1     -29.515  -6.432 -17.268  1.00  0.00     0.101 A 
HETATM    9  C   UNL     1     -30.097  -7.483 -17.981  1.00  0.00     0.099 A 
HETATM   10  C   UNL     1     -31.480  -7.541 -18.165  1.00  0.00     0.040 A 
HETATM   11  C   UNL     1     -32.290  -6.531 -17.633  1.00  0.00     0.012 A 
BRANCH   8  12
HETATM   12  O   UNL     1     -28.149  -6.454 -17.128  1.00  0.00    -0.353 OA
HETATM   13  C   UNL     1     -27.642  -6.760 -15.835  1.00  0.00     0.210 C 
ENDBRANCH   8  12
BRANCH   9  14
HETATM   14  O   UNL     1     -29.298  -8.464 -18.506  1.00  0.00    -0.358 OA
HETATM   15  H   UNL     1     -28.936  -9.001 -17.785  1.00  0.00     0.217 HD
ENDBRANCH   9  14
ENDBRANCH   5   6
ENDBRANCH   1   5
BRANCH   2  16
HETATM   16  C   UNL     1     -34.321  -4.299 -12.956  1.00  0.00     0.103 C 
BRANCH  16  17
HETATM   17  C   UNL     1     -33.092  -4.109 -12.074  1.00  0.00     0.010 C 
BRANCH  17  18
HETATM   18  C   UNL     1     -33.169  -2.825 -11.247  1.00  0.00     0.004 C 
BRANCH  18  19
HETATM   19  C   UNL     1     -34.564  -2.668 -10.644  1.00  0.00     0.027 C 
BRANCH  19  20
HETATM   20  C   UNL     1     -35.308  -1.535 -11.283  1.00  0.00    -0.030 C 
HETATM   21  C   UNL     1     -34.797  -0.792 -12.277  1.00  0.00    -0.027 C 
BRANCH  21  22
HETATM   22  C   UNL     1     -35.529   0.370 -12.899  1.00  0.00    -0.001 C 
HETATM   23  C   UNL     1     -34.651   1.083 -13.930  1.00  0.00     0.013 C 
HETATM   24  C   UNL     1     -36.828  -0.099 -13.553  1.00  0.00     0.013 C 
ENDBRANCH  21  22
ENDBRANCH  19  20
ENDBRANCH  18  19
ENDBRANCH  17  18
ENDBRANCH  16  17
ENDBRANCH   2  16
TORSDOF 10
ENDMDL
MODEL 5
REMARK VINA RESULT:      -7.0      4.265     10.319
REMARK  10 active torsions:
REMARK  status: ('A' for Active; 'I' for Inactive)
REMARK    1  A    between atoms: O_2  and  C_3 
REMARK    2  A    between atoms: C_5  and  C_6 
REMARK    3  A    between atoms: C_6  and  N_7 
REMARK       I    between atoms: N_7  and  C_8 
REMARK    4  A    between atoms: C_8  and  C_10 
REMARK    5  A    between atoms: C_10  and  C_11 
REMARK    6  A    between atoms: C_11  and  C_12 
REMARK    7  A    between atoms: C_12  and  C_13 
REMARK    8  A    between atoms: C_13  and  C_14 
REMARK    9  A    between atoms: C_15  and  C_16 
REMARK   10  A    between atoms: C_21  and  O_22 
ROOT
HETATM    1  N   UNL     1     -21.079  -7.904  -1.370  1.00  0.00    -0.357 N 
HETATM    2  C   UNL     1     -21.852  -6.857  -1.793  1.00  0.00     0.217 C 
HETATM    3  O   UNL     1     -22.700  -6.305  -1.079  1.00  0.00    -0.274 OA
HETATM    4  H   UNL     1     -20.400  -8.294  -2.013  1.00  0.00     0.162 HD
ENDROOT
BRANCH   1   5
HETATM    5  C   UNL     1     -21.219  -8.453  -0.041  1.00  0.00     0.161 C 
BRANCH   5   6
HETATM    6  C   UNL     1     -21.875  -9.816   0.010  1.00  0.00    -0.038 A 
HETATM    7  C   UNL     1     -21.157 -10.979   0.333  1.00  0.00     0.048 A 
HETATM    8  C   UNL     1     -21.785 -12.232   0.410  1.00  0.00     0.101 A 
HETATM    9  C   UNL     1     -23.157 -12.315   0.160  1.00  0.00     0.099 A 
HETATM   10  C   UNL     1     -23.896 -11.171  -0.150  1.00  0.00     0.040 A 
HETATM   11  C   UNL     1     -23.252  -9.930  -0.216  1.00  0.00     0.012 A 
BRANCH   8  12
HETATM   12  O   UNL     1     -21.135 -13.403   0.714  1.00  0.00    -0.353 OA
HETATM   13  C   UNL     1     -19.783 -13.515   0.288  1.00  0.00     0.210 C 
ENDBRANCH   8  12
BRANCH   9  14
HETATM   14  O   UNL     1     -23.780 -13.533   0.219  1.00  0.00    -0.358 OA
HETATM   15  H   UNL     1     -24.381 -13.623  -0.535  1.00  0.00     0.217 HD
ENDBRANCH   9  14
ENDBRANCH   5   6
ENDBRANCH   1   5
BRANCH   2  16
HETATM   16  C   UNL     1     -21.572  -6.435  -3.218  1.00  0.00     0.103 C 
BRANCH  16  17
HETATM   17  C   UNL     1     -21.439  -7.644  -4.137  1.00  0.00     0.010 C 
BRANCH  17  18
HETATM   18  C   UNL     1     -21.437  -7.248  -5.614  1.00  0.00     0.004 C 
BRANCH  18  19
HETATM   19  C   UNL     1     -20.076  -6.673  -6.004  1.00  0.00     0.027 C 
BRANCH  19  20
HETATM   20  C   UNL     1     -20.222  -5.549  -6.984  1.00  0.00    -0.030 C 
HETATM   21  C   UNL     1     -21.407  -5.163  -7.486  1.00  0.00    -0.027 C 
BRANCH  21  22
HETATM   22  C   UNL     1     -21.554  -4.056  -8.497  1.00  0.00    -0.001 C 
HETATM   23  C   UNL     1     -20.493  -4.170  -9.594  1.00  0.00     0.013 C 
HETATM   24  C   UNL     1     -22.950  -4.073  -9.117  1.00  0.00     0.013 C 
ENDBRANCH  21  22
ENDBRANCH  19  20
ENDBRANCH  18  19
ENDBRANCH  17  18
ENDBRANCH  16  17
ENDBRANCH   2  16
TORSDOF 10
ENDMDL
MODEL 6
REMARK VINA RESULT:      -6.8      2.219      3.942
REMARK  10 active torsions:
REMARK  status: ('A' for Active; 'I' for Inactive)
REMARK    1  A    between atoms: O_2  and  C_3 
REMARK    2  A    between atoms: C_5  and  C_6 
REMARK    3  A    between atoms: C_6  and  N_7 
REMARK       I    between atoms: N_7  and  C_8 
REMARK    4  A    between atoms: C_8  and  C_10 
REMARK    5  A    between atoms: C_10  and  C_11 
REMARK    6  A    between atoms: C_11  and  C_12 
REMARK    7  A    between atoms: C_12  and  C_13 
REMARK    8  A    between atoms: C_13  and  C_14 
REMARK    9  A    between atoms: C_15  and  C_16 
REMARK   10  A    between atoms: C_21  and  O_22 
ROOT
HETATM    1  N   UNL     1     -21.125  -6.928  -4.075  1.00  0.00    -0.357 N 
HETATM    2  C   UNL     1     -21.106  -8.268  -3.797  1.00  0.00     0.217 C 
HETATM    3  O   UNL     1     -21.952  -9.064  -4.225  1.00  0.00    -0.274 OA
HETATM    4  H   UNL     1     -20.389  -6.345  -3.693  1.00  0.00     0.162 HD
ENDROOT
BRANCH   1   5
HETATM    5  C   UNL     1     -22.166  -6.343  -4.887  1.00  0.00     0.161 C 
BRANCH   5   6
HETATM    6  C   UNL     1     -21.685  -5.747  -6.192  1.00  0.00    -0.038 A 
HETATM    7  C   UNL     1     -22.488  -4.888  -6.961  1.00  0.00     0.048 A 
HETATM    8  C   UNL     1     -22.017  -4.314  -8.153  1.00  0.00     0.101 A 
HETATM    9  C   UNL     1     -20.719  -4.610  -8.577  1.00  0.00     0.099 A 
HETATM   10  C   UNL     1     -19.897  -5.452  -7.824  1.00  0.00     0.040 A 
HETATM   11  C   UNL     1     -20.383  -6.008  -6.635  1.00  0.00     0.012 A 
BRANCH   8  12
HETATM   12  O   UNL     1     -22.756  -3.473  -8.949  1.00  0.00    -0.353 OA
HETATM   13  C   UNL     1     -23.985  -3.982  -9.451  1.00  0.00     0.210 C 
ENDBRANCH   8  12
BRANCH   9  14
HETATM   14  O   UNL     1     -20.252  -4.068  -9.745  1.00  0.00    -0.358 OA
HETATM   15  H   UNL     1     -20.529  -3.141  -9.801  1.00  0.00     0.217 HD
ENDBRANCH   9  14
ENDBRANCH   5   6
ENDBRANCH   1   5
BRANCH   2  16
HETATM   16  C   UNL     1     -19.950  -8.688  -2.918  1.00  0.00     0.103 C 
BRANCH  16  17
HETATM   17  C   UNL     1     -20.441  -9.307  -1.614  1.00  0.00     0.010 C 
BRANCH  17  18
HETATM   18  C   UNL     1     -20.957  -8.254  -0.634  1.00  0.00     0.004 C 
BRANCH  18  19
HETATM   19  C   UNL     1     -22.455  -8.440  -0.398  1.00  0.00     0.027 C 
BRANCH  19  20
HETATM   20  C   UNL     1     -22.889  -9.835  -0.729  1.00  0.00    -0.030 C 
HETATM   21  C   UNL     1     -23.320 -10.707   0.196  1.00  0.00    -0.027 C 
BRANCH  21  22
HETATM   22  C   UNL     1     -23.724 -12.122  -0.129  1.00  0.00    -0.001 C 
HETATM   23  C   UNL     1     -23.108 -12.580  -1.452  1.00  0.00     0.013 C 
HETATM   24  C   UNL     1     -23.315 -13.072   0.995  1.00  0.00     0.013 C 
ENDBRANCH  21  22
ENDBRANCH  19  20
ENDBRANCH  18  19
ENDBRANCH  17  18
ENDBRANCH  16  17
ENDBRANCH   2  16
TORSDOF 10
ENDMDL
MODEL 7
REMARK VINA RESULT:      -6.8      2.848      4.318
REMARK  10 active torsions:
REMARK  status: ('A' for Active; 'I' for Inactive)
REMARK    1  A    between atoms: O_2  and  C_3 
REMARK    2  A    between atoms: C_5  and  C_6 
REMARK    3  A    between atoms: C_6  and  N_7 
REMARK       I    between atoms: N_7  and  C_8 
REMARK    4  A    between atoms: C_8  and  C_10 
REMARK    5  A    between atoms: C_10  and  C_11 
REMARK    6  A    between atoms: C_11  and  C_12 
REMARK    7  A    between atoms: C_12  and  C_13 
REMARK    8  A    between atoms: C_13  and  C_14 
REMARK    9  A    between atoms: C_15  and  C_16 
REMARK   10  A    between atoms: C_21  and  O_22 
ROOT
HETATM    1  N   UNL     1     -20.654  -6.377  -5.524  1.00  0.00    -0.357 N 
HETATM    2  C   UNL     1     -21.526  -6.833  -4.572  1.00  0.00     0.217 C 
HETATM    3  O   UNL     1     -22.274  -6.091  -3.923  1.00  0.00    -0.274 OA
HETATM    4  H   UNL     1     -20.082  -7.052  -6.018  1.00  0.00     0.162 HD
ENDROOT
BRANCH   1   5
HETATM    5  C   UNL     1     -20.539  -4.969  -5.825  1.00  0.00     0.161 C 
BRANCH   5   6
HETATM    6  C   UNL     1     -20.958  -4.590  -7.229  1.00  0.00    -0.038 A 
HETATM    7  C   UNL     1     -22.288  -4.706  -7.668  1.00  0.00     0.048 A 
HETATM    8  C   UNL     1     -22.669  -4.319  -8.963  1.00  0.00     0.101 A 
HETATM    9  C   UNL     1     -21.698  -3.807  -9.827  1.00  0.00     0.099 A 
HETATM   10  C   UNL     1     -20.373  -3.669  -9.410  1.00  0.00     0.040 A 
HETATM   11  C   UNL     1     -20.014  -4.055  -8.113  1.00  0.00     0.012 A 
BRANCH   8  12
HETATM   12  O   UNL     1     -23.950  -4.415  -9.451  1.00  0.00    -0.353 OA
HETATM   13  C   UNL     1     -24.738  -3.232  -9.419  1.00  0.00     0.210 C 
ENDBRANCH   8  12
BRANCH   9  14
HETATM   14  O   UNL     1     -22.055  -3.438 -11.097  1.00  0.00    -0.358 OA
HETATM   15  H   UNL     1     -21.257  -3.239 -11.609  1.00  0.00     0.217 HD
ENDBRANCH   9  14
ENDBRANCH   5   6
ENDBRANCH   1   5
BRANCH   2  16
HETATM   16  C   UNL     1     -21.490  -8.334  -4.388  1.00  0.00     0.103 C 
BRANCH  16  17
HETATM   17  C   UNL     1     -21.473  -8.710  -2.911  1.00  0.00     0.010 C 
BRANCH  17  18
HETATM   18  C   UNL     1     -20.061  -8.684  -2.325  1.00  0.00     0.004 C 
BRANCH  18  19
HETATM   19  C   UNL     1     -19.624 -10.096  -1.936  1.00  0.00     0.027 C 
BRANCH  19  20
HETATM   20  C   UNL     1     -18.259 -10.409  -2.469  1.00  0.00    -0.030 C 
HETATM   21  C   UNL     1     -17.383  -9.462  -2.841  1.00  0.00    -0.027 C 
BRANCH  21  22
HETATM   22  C   UNL     1     -16.022  -9.774  -3.409  1.00  0.00    -0.001 C 
HETATM   23  C   UNL     1     -15.453 -11.057  -2.799  1.00  0.00     0.013 C 
HETATM   24  C   UNL     1     -16.089  -9.903  -4.930  1.00  0.00     0.013 C 
ENDBRANCH  21  22
ENDBRANCH  19  20
ENDBRANCH  18  19
ENDBRANCH  17  18
ENDBRANCH  16  17
ENDBRANCH   2  16
TORSDOF 10
ENDMDL
MODEL 8
REMARK VINA RESULT:      -6.5      2.746      4.522
REMARK  10 active torsions:
REMARK  status: ('A' for Active; 'I' for Inactive)
REMARK    1  A    between atoms: O_2  and  C_3 
REMARK    2  A    between atoms: C_5  and  C_6 
REMARK    3  A    between atoms: C_6  and  N_7 
REMARK       I    between atoms: N_7  and  C_8 
REMARK    4  A    between atoms: C_8  and  C_10 
REMARK    5  A    between atoms: C_10  and  C_11 
REMARK    6  A    between atoms: C_11  and  C_12 
REMARK    7  A    between atoms: C_12  and  C_13 
REMARK    8  A    between atoms: C_13  and  C_14 
REMARK    9  A    between atoms: C_15  and  C_16 
REMARK   10  A    between atoms: C_21  and  O_22 
ROOT
HETATM    1  N   UNL     1     -20.148  -8.968  -4.073  1.00  0.00    -0.357 N 
HETATM    2  C   UNL     1     -20.663 -10.224  -4.256  1.00  0.00     0.217 C 
HETATM    3  O   UNL     1     -20.637 -10.818  -5.342  1.00  0.00    -0.274 OA
HETATM    4  H   UNL     1     -20.201  -8.555  -3.150  1.00  0.00     0.162 HD
ENDROOT
BRANCH   1   5
HETATM    5  C   UNL     1     -19.544  -8.238  -5.163  1.00  0.00     0.161 C 
BRANCH   5   6
HETATM    6  C   UNL     1     -20.382  -7.095  -5.694  1.00  0.00    -0.038 A 
HETATM    7  C   UNL     1     -19.884  -6.180  -6.637  1.00  0.00     0.048 A 
HETATM    8  C   UNL     1     -20.683  -5.143  -7.147  1.00  0.00     0.101 A 
HETATM    9  C   UNL     1     -22.002  -5.028  -6.702  1.00  0.00     0.099 A 
HETATM   10  C   UNL     1     -22.524  -5.932  -5.775  1.00  0.00     0.040 A 
HETATM   11  C   UNL     1     -21.713  -6.962  -5.284  1.00  0.00     0.012 A 
BRANCH   8  12
HETATM   12  O   UNL     1     -20.250  -4.216  -8.063  1.00  0.00    -0.353 OA
HETATM   13  C   UNL     1     -20.116  -4.659  -9.408  1.00  0.00     0.210 C 
ENDBRANCH   8  12
BRANCH   9  14
HETATM   14  O   UNL     1     -22.788  -4.013  -7.181  1.00  0.00    -0.358 OA
HETATM   15  H   UNL     1     -23.469  -3.800  -6.527  1.00  0.00     0.217 HD
ENDBRANCH   9  14
ENDBRANCH   5   6
ENDBRANCH   1   5
BRANCH   2  16
HETATM   16  C   UNL     1     -21.267 -10.818  -3.004  1.00  0.00     0.103 C 
BRANCH  16  17
HETATM   17  C   UNL     1     -22.720 -11.224  -3.230  1.00  0.00     0.010 C 
BRANCH  17  18
HETATM   18  C   UNL     1     -23.243 -12.134  -2.118  1.00  0.00     0.004 C 
BRANCH  18  19
HETATM   19  C   UNL     1     -23.914 -11.302  -1.026  1.00  0.00     0.027 C 
BRANCH  19  20
HETATM   20  C   UNL     1     -23.100 -10.090  -0.690  1.00  0.00    -0.030 C 
HETATM   21  C   UNL     1     -23.448  -9.215   0.267  1.00  0.00    -0.027 C 
BRANCH  21  22
HETATM   22  C   UNL     1     -22.650  -7.977   0.585  1.00  0.00    -0.001 C 
HETATM   23  C   UNL     1     -21.330  -8.336   1.271  1.00  0.00     0.013 C 
HETATM   24  C   UNL     1     -22.378  -7.170  -0.683  1.00  0.00     0.013 C 
ENDBRANCH  21  22
ENDBRANCH  19  20
ENDBRANCH  18  19
ENDBRANCH  17  18
ENDBRANCH  16  17
ENDBRANCH   2  16
TORSDOF 10
ENDMDL
MODEL 9
REMARK VINA RESULT:      -6.5      5.579      9.773
REMARK  10 active torsions:
REMARK  status: ('A' for Active; 'I' for Inactive)
REMARK    1  A    between atoms: O_2  and  C_3 
REMARK    2  A    between atoms: C_5  and  C_6 
REMARK    3  A    between atoms: C_6  and  N_7 
REMARK       I    between atoms: N_7  and  C_8 
REMARK    4  A    between atoms: C_8  and  C_10 
REMARK    5  A    between atoms: C_10  and  C_11 
REMARK    6  A    between atoms: C_11  and  C_12 
REMARK    7  A    between atoms: C_12  and  C_13 
REMARK    8  A    between atoms: C_13  and  C_14 
REMARK    9  A    between atoms: C_15  and  C_16 
REMARK   10  A    between atoms: C_21  and  O_22 
ROOT
HETATM    1  N   UNL     1     -20.896  -7.833  -1.382  1.00  0.00    -0.357 N 
HETATM    2  C   UNL     1     -21.665  -6.857  -1.957  1.00  0.00     0.217 C 
HETATM    3  O   UNL     1     -22.625  -6.323  -1.387  1.00  0.00    -0.274 OA
HETATM    4  H   UNL     1     -20.120  -8.212  -1.913  1.00  0.00     0.162 HD
ENDROOT
BRANCH   1   5
HETATM    5  C   UNL     1     -21.174  -8.323  -0.052  1.00  0.00     0.161 C 
BRANCH   5   6
HETATM    6  C   UNL     1     -21.820  -9.691  -0.008  1.00  0.00    -0.038 A 
HETATM    7  C   UNL     1     -21.083 -10.855   0.267  1.00  0.00     0.048 A 
HETATM    8  C   UNL     1     -21.701 -12.115   0.338  1.00  0.00     0.101 A 
HETATM    9  C   UNL     1     -23.080 -12.202   0.130  1.00  0.00     0.099 A 
HETATM   10  C   UNL     1     -23.836 -11.057  -0.133  1.00  0.00     0.040 A 
HETATM   11  C   UNL     1     -23.202  -9.810  -0.193  1.00  0.00     0.012 A 
BRANCH   8  12
HETATM   12  O   UNL     1     -21.034 -13.287   0.596  1.00  0.00    -0.353 OA
HETATM   13  C   UNL     1     -19.674 -13.353   0.189  1.00  0.00     0.210 C 
ENDBRANCH   8  12
BRANCH   9  14
HETATM   14  O   UNL     1     -23.693 -13.426   0.183  1.00  0.00    -0.358 OA
HETATM   15  H   UNL     1     -23.033 -14.106   0.383  1.00  0.00     0.217 HD
ENDBRANCH   9  14
ENDBRANCH   5   6
ENDBRANCH   1   5
BRANCH   2  16
HETATM   16  C   UNL     1     -21.229  -6.490  -3.357  1.00  0.00     0.103 C 
BRANCH  16  17
HETATM   17  C   UNL     1     -21.821  -7.443  -4.389  1.00  0.00     0.010 C 
BRANCH  17  18
HETATM   18  C   UNL     1     -20.741  -8.133  -5.223  1.00  0.00     0.004 C 
BRANCH  18  19
HETATM   19  C   UNL     1     -20.130  -9.294  -4.440  1.00  0.00     0.027 C 
BRANCH  19  20
HETATM   20  C   UNL     1     -18.640  -9.163  -4.348  1.00  0.00    -0.030 C 
HETATM   21  C   UNL     1     -17.907  -9.776  -3.406  1.00  0.00    -0.027 C 
BRANCH  21  22
HETATM   22  C   UNL     1     -16.412  -9.620  -3.290  1.00  0.00    -0.001 C 
HETATM   23  C   UNL     1     -15.846 -10.544  -2.210  1.00  0.00     0.013 C 
HETATM   24  C   UNL     1     -15.735  -9.904  -4.629  1.00  0.00     0.013 C 
ENDBRANCH  21  22
ENDBRANCH  19  20
ENDBRANCH  18  19
ENDBRANCH  17  18
ENDBRANCH  16  17
ENDBRANCH   2  16
TORSDOF 10
ENDMDL
