MODEL 1
REMARK VINA RESULT:     -10.4      0.000      0.000
REMARK  4 active torsions:
REMARK  status: ('A' for Active; 'I' for Inactive)
REMARK    1  A    between atoms: C_2  and  C_5 
REMARK    2  A    between atoms: C_8  and  C_9 
REMARK    3  A    between atoms: C_10  and  C_11 
REMARK       I    between atoms: C_11  and  N_13 
REMARK    4  A    between atoms: N_13  and  C_14 
ROOT
HETATM    1  C   UNL     1     -21.139  -5.713  -7.228  1.00  0.00     0.245 C 
HETATM    2  O   UNL     1     -20.034  -5.878  -7.725  1.00  0.00    -0.268 OA
HETATM    3  N   UNL     1     -22.167  -4.931  -7.723  1.00  0.00    -0.324 N 
HETATM    4  H   UNL     1     -23.018  -4.894  -7.174  1.00  0.00     0.169 HD
ENDROOT
BRANCH   1   5
HETATM    5  C   UNL     1     -21.529  -6.398  -5.956  1.00  0.00     0.075 C 
HETATM    6  C   UNL     1     -20.930  -6.080  -4.797  1.00  0.00     0.017 C 
BRANCH   6   7
HETATM    7  C   UNL     1     -21.209  -6.713  -3.496  1.00  0.00    -0.036 A 
HETATM    8  C   UNL     1     -21.906  -6.067  -2.473  1.00  0.00     0.012 A 
HETATM    9  C   UNL     1     -22.201  -6.728  -1.270  1.00  0.00     0.009 A 
HETATM   10  C   UNL     1     -21.833  -8.067  -1.050  1.00  0.00    -0.051 A 
HETATM   11  C   UNL     1     -21.126  -8.703  -2.085  1.00  0.00     0.009 A 
HETATM   12  C   UNL     1     -20.830  -8.043  -3.288  1.00  0.00     0.012 A 
BRANCH  10  13
HETATM   13  C   UNL     1     -22.148  -8.783   0.280  1.00  0.00    -0.024 C 
HETATM   14  C   UNL     1     -22.356 -10.305   0.097  1.00  0.00     0.019 C 
HETATM   15  C   UNL     1     -23.439  -8.182   0.870  1.00  0.00     0.019 C 
HETATM   16  C   UNL     1     -21.021  -8.627   1.329  1.00  0.00     0.019 C 
ENDBRANCH  10  13
ENDBRANCH   6   7
ENDBRANCH   1   5
BRANCH   3  17
HETATM   17  C   UNL     1     -22.200  -4.194  -8.927  1.00  0.00     0.037 A 
HETATM   18  C   UNL     1     -21.080  -3.649  -9.544  1.00  0.00     0.032 A 
HETATM   19  C   UNL     1     -21.207  -2.987 -10.778  1.00  0.00     0.042 A 
HETATM   20  C   UNL     1     -22.451  -2.862 -11.396  1.00  0.00     0.102 A 
HETATM   21  C   UNL     1     -23.582  -3.350 -10.748  1.00  0.00     0.104 A 
HETATM   22  O   UNL     1     -22.469  -2.278 -12.625  1.00  0.00    -0.346 OA
HETATM   23  C   UNL     1     -23.449  -4.026  -9.533  1.00  0.00     0.069 A 
HETATM   24  O   UNL     1     -24.850  -3.180 -11.223  1.00  0.00    -0.346 OA
HETATM   25  C   UNL     1     -24.888  -2.924 -12.622  1.00  0.00     0.202 C 
HETATM   26  C   UNL     1     -23.772  -2.026 -13.146  1.00  0.00     0.202 C 
ENDBRANCH   3  17
TORSDOF 4
ENDMDL
MODEL 2
REMARK VINA RESULT:      -9.2      1.074      1.766
REMARK  4 active torsions:
REMARK  status: ('A' for Active; 'I' for Inactive)
REMARK    1  A    between atoms: C_2  and  C_5 
REMARK    2  A    between atoms: C_8  and  C_9 
REMARK    3  A    between atoms: C_10  and  C_11 
REMARK       I    between atoms: C_11  and  N_13 
REMARK    4  A    between atoms: N_13  and  C_14 
ROOT
HETATM    1  C   UNL     1     -21.225  -4.498  -6.675  1.00  0.00     0.245 C 
HETATM    2  O   UNL     1     -20.373  -3.760  -7.148  1.00  0.00    -0.268 OA
HETATM    3  N   UNL     1     -22.475  -4.770  -7.203  1.00  0.00    -0.324 N 
HETATM    4  H   UNL     1     -23.068  -5.398  -6.671  1.00  0.00     0.169 HD
ENDROOT
BRANCH   1   5
HETATM    5  C   UNL     1     -20.987  -5.247  -5.402  1.00  0.00     0.075 C 
HETATM    6  C   UNL     1     -21.886  -6.139  -4.956  1.00  0.00     0.017 C 
BRANCH   6   7
HETATM    7  C   UNL     1     -21.770  -6.903  -3.702  1.00  0.00    -0.036 A 
HETATM    8  C   UNL     1     -22.017  -6.342  -2.447  1.00  0.00     0.012 A 
HETATM    9  C   UNL     1     -21.952  -7.122  -1.281  1.00  0.00     0.009 A 
HETATM   10  C   UNL     1     -21.662  -8.497  -1.323  1.00  0.00    -0.051 A 
HETATM   11  C   UNL     1     -21.410  -9.047  -2.591  1.00  0.00     0.009 A 
HETATM   12  C   UNL     1     -21.473  -8.269  -3.758  1.00  0.00     0.012 A 
BRANCH  10  13
HETATM   13  C   UNL     1     -21.578  -9.345  -0.037  1.00  0.00    -0.024 C 
HETATM   14  C   UNL     1     -20.453 -10.404  -0.101  1.00  0.00     0.019 C 
HETATM   15  C   UNL     1     -22.922 -10.073   0.162  1.00  0.00     0.019 C 
HETATM   16  C   UNL     1     -21.299  -8.496   1.226  1.00  0.00     0.019 C 
ENDBRANCH  10  13
ENDBRANCH   6   7
ENDBRANCH   1   5
BRANCH   3  17
HETATM   17  C   UNL     1     -23.029  -4.311  -8.417  1.00  0.00     0.037 A 
HETATM   18  C   UNL     1     -24.387  -4.331  -8.716  1.00  0.00     0.032 A 
HETATM   19  C   UNL     1     -24.850  -3.788  -9.928  1.00  0.00     0.042 A 
HETATM   20  C   UNL     1     -23.960  -3.230 -10.845  1.00  0.00     0.102 A 
HETATM   21  C   UNL     1     -22.596  -3.267 -10.576  1.00  0.00     0.104 A 
HETATM   22  O   UNL     1     -24.503  -2.655 -11.954  1.00  0.00    -0.346 OA
HETATM   23  C   UNL     1     -22.141  -3.788  -9.362  1.00  0.00     0.069 A 
HETATM   24  O   UNL     1     -21.645  -2.843 -11.458  1.00  0.00    -0.346 OA
HETATM   25  C   UNL     1     -22.154  -1.930 -12.424  1.00  0.00     0.202 C 
HETATM   26  C   UNL     1     -23.555  -2.244 -12.936  1.00  0.00     0.202 C 
ENDBRANCH   3  17
TORSDOF 4
ENDMDL
MODEL 3
REMARK VINA RESULT:      -9.1      1.655      2.491
REMARK  4 active torsions:
REMARK  status: ('A' for Active; 'I' for Inactive)
REMARK    1  A    between atoms: C_2  and  C_5 
REMARK    2  A    between atoms: C_8  and  C_9 
REMARK    3  A    between atoms: C_10  and  C_11 
REMARK       I    between atoms: C_11  and  N_13 
REMARK    4  A    between atoms: N_13  and  C_14 
ROOT
HETATM    1  C   UNL     1     -20.929  -5.339  -5.160  1.00  0.00     0.245 C 
HETATM    2  O   UNL     1     -20.068  -4.486  -5.002  1.00  0.00    -0.268 OA
HETATM    3  N   UNL     1     -21.705  -5.538  -6.288  1.00  0.00    -0.324 N 
HETATM    4  H   UNL     1     -22.388  -6.286  -6.246  1.00  0.00     0.169 HD
ENDROOT
BRANCH   1   5
HETATM    5  C   UNL     1     -21.246  -6.333  -4.088  1.00  0.00     0.075 C 
HETATM    6  C   UNL     1     -21.136  -7.650  -4.323  1.00  0.00     0.017 C 
BRANCH   6   7
HETATM    7  C   UNL     1     -21.455  -8.714  -3.355  1.00  0.00    -0.036 A 
HETATM    8  C   UNL     1     -21.327  -8.545  -1.975  1.00  0.00     0.012 A 
HETATM    9  C   UNL     1     -21.698  -9.566  -1.084  1.00  0.00     0.009 A 
HETATM   10  C   UNL     1     -22.234 -10.785  -1.535  1.00  0.00    -0.051 A 
HETATM   11  C   UNL     1     -22.351 -10.944  -2.926  1.00  0.00     0.009 A 
HETATM   12  C   UNL     1     -21.979  -9.925  -3.818  1.00  0.00     0.012 A 
BRANCH  10  13
HETATM   13  C   UNL     1     -22.625 -11.908  -0.553  1.00  0.00    -0.024 C 
HETATM   14  C   UNL     1     -21.555 -12.136   0.541  1.00  0.00     0.019 C 
HETATM   15  C   UNL     1     -22.798 -13.219  -1.344  1.00  0.00     0.019 C 
HETATM   16  C   UNL     1     -23.949 -11.618   0.195  1.00  0.00     0.019 C 
ENDBRANCH  10  13
ENDBRANCH   6   7
ENDBRANCH   1   5
BRANCH   3  17
HETATM   17  C   UNL     1     -21.648  -4.851  -7.520  1.00  0.00     0.037 A 
HETATM   18  C   UNL     1     -20.476  -4.608  -8.228  1.00  0.00     0.032 A 
HETATM   19  C   UNL     1     -20.529  -3.972  -9.482  1.00  0.00     0.042 A 
HETATM   20  C   UNL     1     -21.749  -3.572 -10.027  1.00  0.00     0.102 A 
HETATM   21  C   UNL     1     -22.914  -3.756  -9.291  1.00  0.00     0.104 A 
HETATM   22  O   UNL     1     -21.714  -3.038 -11.279  1.00  0.00    -0.346 OA
HETATM   23  C   UNL     1     -22.861  -4.407  -8.056  1.00  0.00     0.069 A 
HETATM   24  O   UNL     1     -24.136  -3.302  -9.694  1.00  0.00    -0.346 OA
HETATM   25  C   UNL     1     -24.210  -3.086 -11.099  1.00  0.00     0.202 C 
HETATM   26  C   UNL     1     -22.953  -2.497 -11.730  1.00  0.00     0.202 C 
ENDBRANCH   3  17
TORSDOF 4
ENDMDL
MODEL 4
REMARK VINA RESULT:      -8.5      2.771      5.059
REMARK  4 active torsions:
REMARK  status: ('A' for Active; 'I' for Inactive)
REMARK    1  A    between atoms: C_2  and  C_5 
REMARK    2  A    between atoms: C_8  and  C_9 
REMARK    3  A    between atoms: C_10  and  C_11 
REMARK       I    between atoms: C_11  and  N_13 
REMARK    4  A    between atoms: N_13  and  C_14 
ROOT
HETATM    1  C   UNL     1     -21.579  -7.034  -2.595  1.00  0.00     0.245 C 
HETATM    2  O   UNL     1     -21.579  -5.864  -2.241  1.00  0.00    -0.268 OA
HETATM    3  N   UNL     1     -21.422  -7.513  -3.884  1.00  0.00    -0.324 N 
HETATM    4  H   UNL     1     -21.463  -8.519  -4.005  1.00  0.00     0.169 HD
ENDROOT
BRANCH   1   5
HETATM    5  C   UNL     1     -21.745  -8.146  -1.608  1.00  0.00     0.075 C 
HETATM    6  C   UNL     1     -22.034  -9.390  -2.022  1.00  0.00     0.017 C 
BRANCH   6   7
HETATM    7  C   UNL     1     -22.253 -10.549  -1.139  1.00  0.00    -0.036 A 
HETATM    8  C   UNL     1     -23.515 -10.910  -0.663  1.00  0.00     0.012 A 
HETATM    9  C   UNL     1     -23.687 -12.056   0.130  1.00  0.00     0.009 A 
HETATM   10  C   UNL     1     -22.611 -12.900   0.459  1.00  0.00    -0.051 A 
HETATM   11  C   UNL     1     -21.346 -12.520  -0.021  1.00  0.00     0.009 A 
HETATM   12  C   UNL     1     -21.172 -11.374  -0.813  1.00  0.00     0.012 A 
BRANCH  10  13
HETATM   13  C   UNL     1     -22.805 -14.149   1.342  1.00  0.00    -0.024 C 
HETATM   14  C   UNL     1     -21.487 -14.612   2.007  1.00  0.00     0.019 C 
HETATM   15  C   UNL     1     -23.337 -15.297   0.463  1.00  0.00     0.019 C 
HETATM   16  C   UNL     1     -23.811 -13.920   2.496  1.00  0.00     0.019 C 
ENDBRANCH  10  13
ENDBRANCH   6   7
ENDBRANCH   1   5
BRANCH   3  17
HETATM   17  C   UNL     1     -21.174  -6.779  -5.063  1.00  0.00     0.037 A 
HETATM   18  C   UNL     1     -19.972  -6.803  -5.764  1.00  0.00     0.032 A 
HETATM   19  C   UNL     1     -19.844  -6.087  -6.968  1.00  0.00     0.042 A 
HETATM   20  C   UNL     1     -20.911  -5.343  -7.472  1.00  0.00     0.102 A 
HETATM   21  C   UNL     1     -22.091  -5.266  -6.740  1.00  0.00     0.104 A 
HETATM   22  O   UNL     1     -20.724  -4.749  -8.683  1.00  0.00    -0.346 OA
HETATM   23  C   UNL     1     -22.222  -5.995  -5.555  1.00  0.00     0.069 A 
HETATM   24  O   UNL     1     -23.146  -4.479  -7.098  1.00  0.00    -0.346 OA
HETATM   25  C   UNL     1     -23.147  -4.152  -8.484  1.00  0.00     0.202 C 
HETATM   26  C   UNL     1     -21.773  -3.871  -9.083  1.00  0.00     0.202 C 
ENDBRANCH   3  17
TORSDOF 4
ENDMDL
MODEL 5
REMARK VINA RESULT:      -8.0      4.856     11.396
REMARK  4 active torsions:
REMARK  status: ('A' for Active; 'I' for Inactive)
REMARK    1  A    between atoms: C_2  and  C_5 
REMARK    2  A    between atoms: C_8  and  C_9 
REMARK    3  A    between atoms: C_10  and  C_11 
REMARK       I    between atoms: C_11  and  N_13 
REMARK    4  A    between atoms: N_13  and  C_14 
ROOT
HETATM    1  C   UNL     1     -21.416  -8.538  -1.136  1.00  0.00     0.245 C 
HETATM    2  O   UNL     1     -20.963  -8.236  -0.042  1.00  0.00    -0.268 OA
HETATM    3  N   UNL     1     -21.972  -9.752  -1.501  1.00  0.00    -0.324 N 
HETATM    4  H   UNL     1     -22.288  -9.840  -2.460  1.00  0.00     0.169 HD
ENDROOT
BRANCH   1   5
HETATM    5  C   UNL     1     -21.435  -7.559  -2.268  1.00  0.00     0.075 C 
HETATM    6  C   UNL     1     -21.221  -7.968  -3.529  1.00  0.00     0.017 C 
BRANCH   6   7
HETATM    7  C   UNL     1     -21.181  -7.089  -4.710  1.00  0.00    -0.036 A 
HETATM    8  C   UNL     1     -20.076  -7.010  -5.559  1.00  0.00     0.012 A 
HETATM    9  C   UNL     1     -20.102  -6.202  -6.708  1.00  0.00     0.009 A 
HETATM   10  C   UNL     1     -21.241  -5.460  -7.066  1.00  0.00    -0.051 A 
HETATM   11  C   UNL     1     -22.344  -5.543  -6.199  1.00  0.00     0.009 A 
HETATM   12  C   UNL     1     -22.318  -6.349  -5.051  1.00  0.00     0.012 A 
BRANCH  10  13
HETATM   13  C   UNL     1     -21.258  -4.563  -8.321  1.00  0.00    -0.024 C 
HETATM   14  C   UNL     1     -20.015  -4.776  -9.217  1.00  0.00     0.019 C 
HETATM   15  C   UNL     1     -21.288  -3.089  -7.873  1.00  0.00     0.019 C 
HETATM   16  C   UNL     1     -22.488  -4.817  -9.226  1.00  0.00     0.019 C 
ENDBRANCH  10  13
ENDBRANCH   6   7
ENDBRANCH   1   5
BRANCH   3  17
HETATM   17  C   UNL     1     -22.192 -10.889  -0.694  1.00  0.00     0.037 A 
HETATM   18  C   UNL     1     -23.421 -11.234  -0.144  1.00  0.00     0.032 A 
HETATM   19  C   UNL     1     -23.555 -12.425   0.593  1.00  0.00     0.042 A 
HETATM   20  C   UNL     1     -22.461 -13.269   0.787  1.00  0.00     0.102 A 
HETATM   21  C   UNL     1     -21.217 -12.893   0.293  1.00  0.00     0.104 A 
HETATM   22  O   UNL     1     -22.699 -14.438   1.443  1.00  0.00    -0.346 OA
HETATM   23  C   UNL     1     -21.092 -11.720  -0.456  1.00  0.00     0.069 A 
HETATM   24  O   UNL     1     -20.073 -13.599   0.524  1.00  0.00    -0.346 OA
HETATM   25  C   UNL     1     -20.320 -14.959   0.864  1.00  0.00     0.202 C 
HETATM   26  C   UNL     1     -21.532 -15.191   1.760  1.00  0.00     0.202 C 
ENDBRANCH   3  17
TORSDOF 4
ENDMDL
MODEL 6
REMARK VINA RESULT:      -7.9     15.869     16.773
REMARK  4 active torsions:
REMARK  status: ('A' for Active; 'I' for Inactive)
REMARK    1  A    between atoms: C_2  and  C_5 
REMARK    2  A    between atoms: C_8  and  C_9 
REMARK    3  A    between atoms: C_10  and  C_11 
REMARK       I    between atoms: C_11  and  N_13 
REMARK    4  A    between atoms: N_13  and  C_14 
ROOT
HETATM    1  C   UNL     1     -23.040   8.825   1.458  1.00  0.00     0.245 C 
HETATM    2  O   UNL     1     -24.185   8.992   1.851  1.00  0.00    -0.268 OA
HETATM    3  N   UNL     1     -22.646   8.232   0.271  1.00  0.00    -0.324 N 
HETATM    4  H   UNL     1     -21.648   8.160   0.106  1.00  0.00     0.169 HD
ENDROOT
BRANCH   1   5
HETATM    5  C   UNL     1     -21.866   9.288   2.261  1.00  0.00     0.075 C 
HETATM    6  C   UNL     1     -20.796   8.493   2.428  1.00  0.00     0.017 C 
BRANCH   6   7
HETATM    7  C   UNL     1     -19.605   8.832   3.226  1.00  0.00    -0.036 A 
HETATM    8  C   UNL     1     -19.596   8.809   4.622  1.00  0.00     0.012 A 
HETATM    9  C   UNL     1     -18.422   9.083   5.343  1.00  0.00     0.009 A 
HETATM   10  C   UNL     1     -17.205   9.367   4.698  1.00  0.00    -0.051 A 
HETATM   11  C   UNL     1     -17.230   9.393   3.293  1.00  0.00     0.009 A 
HETATM   12  C   UNL     1     -18.403   9.121   2.572  1.00  0.00     0.012 A 
BRANCH  10  13
HETATM   13  C   UNL     1     -15.923   9.681   5.496  1.00  0.00    -0.024 C 
HETATM   14  C   UNL     1     -15.672  11.201   5.635  1.00  0.00     0.019 C 
HETATM   15  C   UNL     1     -14.721   9.054   4.763  1.00  0.00     0.019 C 
HETATM   16  C   UNL     1     -15.957   9.117   6.936  1.00  0.00     0.019 C 
ENDBRANCH  10  13
ENDBRANCH   6   7
ENDBRANCH   1   5
BRANCH   3  17
HETATM   17  C   UNL     1     -23.461   7.738  -0.770  1.00  0.00     0.037 A 
HETATM   18  C   UNL     1     -23.463   6.417  -1.205  1.00  0.00     0.032 A 
HETATM   19  C   UNL     1     -24.360   6.006  -2.207  1.00  0.00     0.042 A 
HETATM   20  C   UNL     1     -25.253   6.912  -2.780  1.00  0.00     0.102 A 
HETATM   21  C   UNL     1     -25.207   8.247  -2.393  1.00  0.00     0.104 A 
HETATM   22  O   UNL     1     -26.139   6.410  -3.683  1.00  0.00    -0.346 OA
HETATM   23  C   UNL     1     -24.329   8.648  -1.383  1.00  0.00     0.069 A 
HETATM   24  O   UNL     1     -25.964   9.223  -2.972  1.00  0.00    -0.346 OA
HETATM   25  C   UNL     1     -27.122   8.712  -3.624  1.00  0.00     0.202 C 
HETATM   26  C   UNL     1     -26.919   7.392  -4.361  1.00  0.00     0.202 C 
ENDBRANCH   3  17
TORSDOF 4
ENDMDL
MODEL 7
REMARK VINA RESULT:      -7.8      4.997     11.406
REMARK  4 active torsions:
REMARK  status: ('A' for Active; 'I' for Inactive)
REMARK    1  A    between atoms: C_2  and  C_5 
REMARK    2  A    between atoms: C_8  and  C_9 
REMARK    3  A    between atoms: C_10  and  C_11 
REMARK       I    between atoms: C_11  and  N_13 
REMARK    4  A    between atoms: N_13  and  C_14 
ROOT
HETATM    1  C   UNL     1     -21.028  -8.794  -1.010  1.00  0.00     0.245 C 
HETATM    2  O   UNL     1     -21.127  -8.466   0.163  1.00  0.00    -0.268 OA
HETATM    3  N   UNL     1     -20.913 -10.081  -1.507  1.00  0.00    -0.324 N 
HETATM    4  H   UNL     1     -20.824 -10.176  -2.512  1.00  0.00     0.169 HD
ENDROOT
BRANCH   1   5
HETATM    5  C   UNL     1     -21.037  -7.777  -2.107  1.00  0.00     0.075 C 
HETATM    6  C   UNL     1     -21.139  -8.157  -3.391  1.00  0.00     0.017 C 
BRANCH   6   7
HETATM    7  C   UNL     1     -21.122  -7.246  -4.548  1.00  0.00    -0.036 A 
HETATM    8  C   UNL     1     -20.039  -7.156  -5.426  1.00  0.00     0.012 A 
HETATM    9  C   UNL     1     -20.088  -6.316  -6.550  1.00  0.00     0.009 A 
HETATM   10  C   UNL     1     -21.228  -5.552  -6.857  1.00  0.00    -0.051 A 
HETATM   11  C   UNL     1     -22.307  -5.647  -5.962  1.00  0.00     0.009 A 
HETATM   12  C   UNL     1     -22.260  -6.485  -4.837  1.00  0.00     0.012 A 
BRANCH  10  13
HETATM   13  C   UNL     1     -21.269  -4.621  -8.086  1.00  0.00    -0.024 C 
HETATM   14  C   UNL     1     -20.043  -4.808  -9.011  1.00  0.00     0.019 C 
HETATM   15  C   UNL     1     -21.291  -3.160  -7.597  1.00  0.00     0.019 C 
HETATM   16  C   UNL     1     -22.515  -4.851  -8.974  1.00  0.00     0.019 C 
ENDBRANCH  10  13
ENDBRANCH   6   7
ENDBRANCH   1   5
BRANCH   3  17
HETATM   17  C   UNL     1     -20.937 -11.298  -0.793  1.00  0.00     0.037 A 
HETATM   18  C   UNL     1     -19.852 -12.159  -0.674  1.00  0.00     0.032 A 
HETATM   19  C   UNL     1     -19.955 -13.318   0.117  1.00  0.00     0.042 A 
HETATM   20  C   UNL     1     -21.142 -13.623   0.784  1.00  0.00     0.102 A 
HETATM   21  C   UNL     1     -22.247 -12.796   0.614  1.00  0.00     0.104 A 
HETATM   22  O   UNL     1     -21.126 -14.720   1.590  1.00  0.00    -0.346 OA
HETATM   23  C   UNL     1     -22.135 -11.635  -0.154  1.00  0.00     0.069 A 
HETATM   24  O   UNL     1     -23.477 -13.070   1.139  1.00  0.00    -0.346 OA
HETATM   25  C   UNL     1     -23.419 -13.960   2.249  1.00  0.00     0.202 C 
HETATM   26  C   UNL     1     -22.397 -15.085   2.123  1.00  0.00     0.202 C 
ENDBRANCH   3  17
TORSDOF 4
ENDMDL
MODEL 8
REMARK VINA RESULT:      -7.5     16.438     18.957
REMARK  4 active torsions:
REMARK  status: ('A' for Active; 'I' for Inactive)
REMARK    1  A    between atoms: C_2  and  C_5 
REMARK    2  A    between atoms: C_8  and  C_9 
REMARK    3  A    between atoms: C_10  and  C_11 
REMARK       I    between atoms: C_11  and  N_13 
REMARK    4  A    between atoms: N_13  and  C_14 
ROOT
HETATM    1  C   UNL     1     -22.437   9.862   3.474  1.00  0.00     0.245 C 
HETATM    2  O   UNL     1     -22.788  10.750   4.238  1.00  0.00    -0.268 OA
HETATM    3  N   UNL     1     -21.246   9.158   3.507  1.00  0.00    -0.324 N 
HETATM    4  H   UNL     1     -21.108   8.460   2.785  1.00  0.00     0.169 HD
ENDROOT
BRANCH   1   5
HETATM    5  C   UNL     1     -23.322   9.400   2.360  1.00  0.00     0.075 C 
HETATM    6  C   UNL     1     -22.802   8.782   1.286  1.00  0.00     0.017 C 
BRANCH   6   7
HETATM    7  C   UNL     1     -23.573   8.319   0.119  1.00  0.00    -0.036 A 
HETATM    8  C   UNL     1     -24.901   8.688  -0.106  1.00  0.00     0.012 A 
HETATM    9  C   UNL     1     -25.581   8.271  -1.262  1.00  0.00     0.009 A 
HETATM   10  C   UNL     1     -24.955   7.489  -2.249  1.00  0.00    -0.051 A 
HETATM   11  C   UNL     1     -23.621   7.120  -2.006  1.00  0.00     0.009 A 
HETATM   12  C   UNL     1     -22.940   7.535  -0.851  1.00  0.00     0.012 A 
BRANCH  10  13
HETATM   13  C   UNL     1     -25.711   7.022  -3.510  1.00  0.00    -0.024 C 
HETATM   14  C   UNL     1     -27.243   7.196  -3.377  1.00  0.00     0.019 C 
HETATM   15  C   UNL     1     -25.409   5.529  -3.742  1.00  0.00     0.019 C 
HETATM   16  C   UNL     1     -25.299   7.801  -4.782  1.00  0.00     0.019 C 
ENDBRANCH  10  13
ENDBRANCH   6   7
ENDBRANCH   1   5
BRANCH   3  17
HETATM   17  C   UNL     1     -20.197   9.261   4.447  1.00  0.00     0.037 A 
HETATM   18  C   UNL     1     -20.384   9.426   5.815  1.00  0.00     0.032 A 
HETATM   19  C   UNL     1     -19.275   9.451   6.680  1.00  0.00     0.042 A 
HETATM   20  C   UNL     1     -17.979   9.317   6.181  1.00  0.00     0.102 A 
HETATM   21  C   UNL     1     -17.787   9.217   4.807  1.00  0.00     0.104 A 
HETATM   22  O   UNL     1     -16.972   9.271   7.096  1.00  0.00    -0.346 OA
HETATM   23  C   UNL     1     -18.892   9.171   3.953  1.00  0.00     0.069 A 
HETATM   24  O   UNL     1     -16.556   9.190   4.221  1.00  0.00    -0.346 OA
HETATM   25  C   UNL     1     -15.527   8.776   5.114  1.00  0.00     0.202 C 
HETATM   26  C   UNL     1     -15.660   9.297   6.540  1.00  0.00     0.202 C 
ENDBRANCH   3  17
TORSDOF 4
ENDMDL
