MODEL 1
REMARK VINA RESULT:      -8.8      0.000      0.000
REMARK  6 active torsions:
REMARK  status: ('A' for Active; 'I' for Inactive)
REMARK       I    between atoms: C_2  and  N_4 
REMARK    1  A    between atoms: N_4  and  C_5 
REMARK    2  A    between atoms: C_9  and  O_10 
REMARK    3  A    between atoms: O_10  and  C_11 
REMARK    4  A    between atoms: C_13  and  N_14 
REMARK    5  A    between atoms: N_17  and  C_18 
REMARK    6  A    between atoms: C_18  and  C_20 
ROOT
HETATM    1  C   UNL     1     -20.401 -10.444  -1.141  1.00  0.00     0.152 A 
HETATM    2  C   UNL     1     -20.389  -9.690  -2.295  1.00  0.00     0.104 A 
HETATM    3  C   UNL     1     -20.754  -8.359  -2.187  1.00  0.00     0.108 A 
HETATM    4  N   UNL     1     -21.136  -7.853  -1.002  1.00  0.00    -0.339 N 
ATOM      5  HN  UNL     1     -21.387  -6.869  -0.903  1.00  0.00     0.168 HD
HETATM    6  C   UNL     1     -21.177  -8.690   0.045  1.00  0.00     0.183 A 
HETATM    7  N   UNL     1     -20.833  -9.980   0.039  1.00  0.00    -0.333 N 
ATOM      8  HN  UNL     1     -20.895 -10.567   0.871  1.00  0.00     0.168 HD
ENDROOT
BRANCH   1   9
HETATM    9  O   UNL     1     -19.917 -11.748  -1.234  1.00  0.00    -0.291 OA
BRANCH   9  10
HETATM   10  C   UNL     1     -18.542 -11.935  -1.231  1.00  0.00     0.105 A 
HETATM   11  C   UNL     1     -17.872 -12.141  -2.466  1.00  0.00     0.085 A 
HETATM   12  N   UNL     1     -18.441 -12.205  -3.743  1.00  0.00    -0.333 N 
HETATM   13  C   UNL     1     -16.485 -12.320  -2.447  1.00  0.00     0.038 A 
HETATM   14  C   UNL     1     -17.521 -12.524  -4.621  1.00  0.00     0.152 A 
ATOM     15  HN  UNL     1     -19.423 -12.030  -3.958  1.00  0.00     0.168 HD
HETATM   16  S   UNL     1     -15.924 -12.584  -4.045  1.00  0.00    -0.052 SA
HETATM   17  C   UNL     1     -15.727 -12.283  -1.266  1.00  0.00     0.021 A 
HETATM   18  C   UNL     1     -16.394 -12.049  -0.068  1.00  0.00     0.004 A 
HETATM   19  C   UNL     1     -17.772 -11.855  -0.052  1.00  0.00     0.040 A 
BRANCH  14  20
HETATM   20  N   UNL     1     -17.815 -12.736  -5.948  1.00  0.00    -0.307 N 
HETATM   21  C   UNL     1     -18.569 -11.898  -6.742  1.00  0.00     0.219 C 
HETATM   22  C   UNL     1     -18.733 -12.424  -8.143  1.00  0.00     0.117 C 
HETATM   23  O   UNL     1     -19.075 -10.827  -6.425  1.00  0.00    -0.274 OA
HETATM   24  H   UNL     1     -17.259 -13.464  -6.375  1.00  0.00     0.171 HD
ENDBRANCH  14  20
ENDBRANCH   9  10
ENDBRANCH   1   9
BRANCH   3  25
HETATM   25  N   UNL     1     -20.652  -7.515  -3.283  1.00  0.00    -0.364 N 
HETATM   26  C   UNL     1     -21.562  -6.361  -3.361  1.00  0.00     0.154 C 
HETATM   27  C   UNL     1     -22.532  -6.440  -4.558  1.00  0.00     0.293 C 
HETATM   28  N   UNL     1     -21.884  -6.722  -5.867  1.00  0.00     0.100 N 
HETATM   29  C   UNL     1     -21.179  -8.019  -5.688  1.00  0.00     0.293 C 
HETATM   30  C   UNL     1     -20.127  -8.053  -4.548  1.00  0.00     0.154 C 
BRANCH  28  31
HETATM   31  C   UNL     1     -20.977  -5.629  -6.315  1.00  0.00     0.252 C 
HETATM   32  C   UNL     1     -19.540  -6.131  -6.541  1.00  0.00     0.048 C 
BRANCH  31  33
HETATM   33  C   UNL     1     -21.455  -4.933  -7.595  1.00  0.00    -0.025 A 
HETATM   34  C   UNL     1     -20.559  -4.763  -8.667  1.00  0.00     0.012 A 
HETATM   35  C   UNL     1     -20.956  -4.104  -9.831  1.00  0.00     0.043 A 
HETATM   36  C   UNL     1     -22.254  -3.619  -9.934  1.00  0.00     0.116 A 
HETATM   37  F   UNL     1     -22.630  -2.978 -11.049  1.00  0.00    -0.206 F 
HETATM   38  C   UNL     1     -23.162  -3.786  -8.898  1.00  0.00     0.043 A 
HETATM   39  C   UNL     1     -22.765  -4.438  -7.728  1.00  0.00     0.012 A 
ENDBRANCH  31  33
ENDBRANCH  28  31
ENDBRANCH   3  25
TORSDOF 6
ENDMDL
MODEL 2
REMARK VINA RESULT:      -8.8      2.084      2.750
REMARK  6 active torsions:
REMARK  status: ('A' for Active; 'I' for Inactive)
REMARK       I    between atoms: C_2  and  N_4 
REMARK    1  A    between atoms: N_4  and  C_5 
REMARK    2  A    between atoms: C_9  and  O_10 
REMARK    3  A    between atoms: O_10  and  C_11 
REMARK    4  A    between atoms: C_13  and  N_14 
REMARK    5  A    between atoms: N_17  and  C_18 
REMARK    6  A    between atoms: C_18  and  C_20 
ROOT
HETATM    1  C   UNL     1     -21.210  -9.293   0.293  1.00  0.00     0.152 A 
HETATM    2  C   UNL     1     -20.828  -8.907  -0.975  1.00  0.00     0.104 A 
HETATM    3  C   UNL     1     -21.467  -7.807  -1.522  1.00  0.00     0.108 A 
HETATM    4  N   UNL     1     -22.441  -7.179  -0.843  1.00  0.00    -0.339 N 
ATOM      5  HN  UNL     1     -22.904  -6.354  -1.225  1.00  0.00     0.168 HD
HETATM    6  C   UNL     1     -22.781  -7.677   0.354  1.00  0.00     0.183 A 
HETATM    7  N   UNL     1     -22.218  -8.720   0.966  1.00  0.00    -0.333 N 
ATOM      8  HN  UNL     1     -22.530  -9.057   1.877  1.00  0.00     0.168 HD
ENDROOT
BRANCH   1   9
HETATM    9  O   UNL     1     -20.482 -10.323   0.885  1.00  0.00    -0.291 OA
BRANCH   9  10
HETATM   10  C   UNL     1     -20.733 -11.623   0.470  1.00  0.00     0.105 A 
HETATM   11  C   UNL     1     -19.822 -12.250  -0.420  1.00  0.00     0.085 A 
HETATM   12  N   UNL     1     -18.662 -11.700  -0.978  1.00  0.00    -0.333 N 
HETATM   13  C   UNL     1     -20.085 -13.564  -0.823  1.00  0.00     0.038 A 
HETATM   14  C   UNL     1     -18.145 -12.542  -1.842  1.00  0.00     0.152 A 
ATOM     15  HN  UNL     1     -18.276 -10.785  -0.747  1.00  0.00     0.168 HD
HETATM   16  S   UNL     1     -18.868 -14.078  -1.915  1.00  0.00    -0.052 SA
HETATM   17  C   UNL     1     -21.194 -14.292  -0.369  1.00  0.00     0.021 A 
HETATM   18  C   UNL     1     -22.061 -13.675   0.527  1.00  0.00     0.004 A 
HETATM   19  C   UNL     1     -21.823 -12.373   0.957  1.00  0.00     0.040 A 
BRANCH  14  20
HETATM   20  N   UNL     1     -17.043 -12.229  -2.602  1.00  0.00    -0.307 N 
HETATM   21  C   UNL     1     -16.685 -10.958  -3.002  1.00  0.00     0.219 C 
HETATM   22  C   UNL     1     -15.440 -10.950  -3.849  1.00  0.00     0.117 C 
HETATM   23  O   UNL     1     -17.254  -9.905  -2.736  1.00  0.00    -0.274 OA
HETATM   24  H   UNL     1     -16.378 -12.985  -2.682  1.00  0.00     0.171 HD
ENDBRANCH  14  20
ENDBRANCH   9  10
ENDBRANCH   1   9
BRANCH   3  25
HETATM   25  N   UNL     1     -21.051  -7.295  -2.743  1.00  0.00    -0.364 N 
HETATM   26  C   UNL     1     -21.780  -6.142  -3.298  1.00  0.00     0.154 C 
HETATM   27  C   UNL     1     -22.502  -6.469  -4.621  1.00  0.00     0.293 C 
HETATM   28  N   UNL     1     -21.653  -7.134  -5.647  1.00  0.00     0.100 N 
HETATM   29  C   UNL     1     -21.162  -8.382  -5.005  1.00  0.00     0.293 C 
HETATM   30  C   UNL     1     -20.362  -8.184  -3.690  1.00  0.00     0.154 C 
BRANCH  28  31
HETATM   31  C   UNL     1     -20.549  -6.264  -6.140  1.00  0.00     0.252 C 
HETATM   32  C   UNL     1     -19.290  -7.078  -6.493  1.00  0.00     0.048 C 
BRANCH  31  33
HETATM   33  C   UNL     1     -20.941  -5.422  -7.360  1.00  0.00    -0.025 A 
HETATM   34  C   UNL     1     -20.018  -5.251  -8.409  1.00  0.00     0.012 A 
HETATM   35  C   UNL     1     -20.335  -4.463  -9.516  1.00  0.00     0.043 A 
HETATM   36  C   UNL     1     -21.579  -3.849  -9.586  1.00  0.00     0.116 A 
HETATM   37  F   UNL     1     -21.877  -3.085 -10.645  1.00  0.00    -0.206 F 
HETATM   38  C   UNL     1     -22.513  -4.013  -8.572  1.00  0.00     0.043 A 
HETATM   39  C   UNL     1     -22.195  -4.795  -7.459  1.00  0.00     0.012 A 
ENDBRANCH  31  33
ENDBRANCH  28  31
ENDBRANCH   3  25
TORSDOF 6
ENDMDL
MODEL 3
REMARK VINA RESULT:      -8.8      2.789      3.258
REMARK  6 active torsions:
REMARK  status: ('A' for Active; 'I' for Inactive)
REMARK       I    between atoms: C_2  and  N_4 
REMARK    1  A    between atoms: N_4  and  C_5 
REMARK    2  A    between atoms: C_9  and  O_10 
REMARK    3  A    between atoms: O_10  and  C_11 
REMARK    4  A    between atoms: C_13  and  N_14 
REMARK    5  A    between atoms: N_17  and  C_18 
REMARK    6  A    between atoms: C_18  and  C_20 
ROOT
HETATM    1  C   UNL     1     -21.089 -10.051  -0.391  1.00  0.00     0.152 A 
HETATM    2  C   UNL     1     -20.874  -9.472  -1.623  1.00  0.00     0.104 A 
HETATM    3  C   UNL     1     -21.171  -8.125  -1.752  1.00  0.00     0.108 A 
HETATM    4  N   UNL     1     -21.682  -7.440  -0.716  1.00  0.00    -0.339 N 
ATOM      5  HN  UNL     1     -21.885  -6.443  -0.790  1.00  0.00     0.168 HD
HETATM    6  C   UNL     1     -21.915  -8.116   0.419  1.00  0.00     0.183 A 
HETATM    7  N   UNL     1     -21.651  -9.405   0.640  1.00  0.00    -0.333 N 
ATOM      8  HN  UNL     1     -21.861  -9.864   1.527  1.00  0.00     0.168 HD
ENDROOT
BRANCH   1   9
HETATM    9  O   UNL     1     -20.674 -11.372  -0.233  1.00  0.00    -0.291 OA
BRANCH   9  10
HETATM   10  C   UNL     1     -21.650 -12.354  -0.126  1.00  0.00     0.105 A 
HETATM   11  C   UNL     1     -22.042 -13.065  -1.291  1.00  0.00     0.085 A 
HETATM   12  N   UNL     1     -21.571 -12.885  -2.597  1.00  0.00    -0.333 N 
HETATM   13  C   UNL     1     -23.020 -14.057  -1.165  1.00  0.00     0.038 A 
HETATM   14  C   UNL     1     -22.254 -13.646  -3.420  1.00  0.00     0.152 A 
ATOM     15  HN  UNL     1     -20.813 -12.259  -2.867  1.00  0.00     0.168 HD
HETATM   16  S   UNL     1     -23.342 -14.736  -2.705  1.00  0.00    -0.052 SA
HETATM   17  C   UNL     1     -23.611 -14.393   0.062  1.00  0.00     0.021 A 
HETATM   18  C   UNL     1     -23.193 -13.709   1.200  1.00  0.00     0.004 A 
HETATM   19  C   UNL     1     -22.214 -12.724   1.112  1.00  0.00     0.040 A 
BRANCH  14  20
HETATM   20  N   UNL     1     -22.059 -13.612  -4.781  1.00  0.00    -0.307 N 
HETATM   21  C   UNL     1     -21.345 -12.647  -5.461  1.00  0.00     0.219 C 
HETATM   22  C   UNL     1     -21.339 -12.877  -6.950  1.00  0.00     0.117 C 
HETATM   23  O   UNL     1     -20.748 -11.688  -4.985  1.00  0.00    -0.274 OA
HETATM   24  H   UNL     1     -22.305 -14.474  -5.247  1.00  0.00     0.171 HD
ENDBRANCH  14  20
ENDBRANCH   9  10
ENDBRANCH   1   9
BRANCH   3  25
HETATM   25  N   UNL     1     -20.870  -7.453  -2.928  1.00  0.00    -0.364 N 
HETATM   26  C   UNL     1     -21.666  -6.264  -3.273  1.00  0.00     0.154 C 
HETATM   27  C   UNL     1     -22.489  -6.446  -4.565  1.00  0.00     0.293 C 
HETATM   28  N   UNL     1     -21.715  -6.952  -5.731  1.00  0.00     0.100 N 
HETATM   29  C   UNL     1     -21.146  -8.254  -5.293  1.00  0.00     0.293 C 
HETATM   30  C   UNL     1     -20.244  -8.197  -4.032  1.00  0.00     0.154 C 
BRANCH  28  31
HETATM   31  C   UNL     1     -20.674  -5.994  -6.197  1.00  0.00     0.252 C 
HETATM   32  C   UNL     1     -19.334  -6.697  -6.483  1.00  0.00     0.048 C 
BRANCH  31  33
HETATM   33  C   UNL     1     -21.089  -5.213  -7.449  1.00  0.00    -0.025 A 
HETATM   34  C   UNL     1     -20.177  -5.071  -8.512  1.00  0.00     0.012 A 
HETATM   35  C   UNL     1     -20.515  -4.337  -9.649  1.00  0.00     0.043 A 
HETATM   36  C   UNL     1     -21.770  -3.747  -9.735  1.00  0.00     0.116 A 
HETATM   37  F   UNL     1     -22.088  -3.035 -10.824  1.00  0.00    -0.206 F 
HETATM   38  C   UNL     1     -22.693  -3.883  -8.707  1.00  0.00     0.043 A 
HETATM   39  C   UNL     1     -22.355  -4.611  -7.565  1.00  0.00     0.012 A 
ENDBRANCH  31  33
ENDBRANCH  28  31
ENDBRANCH   3  25
TORSDOF 6
ENDMDL
MODEL 4
REMARK VINA RESULT:      -8.6     17.991     21.129
REMARK  6 active torsions:
REMARK  status: ('A' for Active; 'I' for Inactive)
REMARK       I    between atoms: C_2  and  N_4 
REMARK    1  A    between atoms: N_4  and  C_5 
REMARK    2  A    between atoms: C_9  and  O_10 
REMARK    3  A    between atoms: O_10  and  C_11 
REMARK    4  A    between atoms: C_13  and  N_14 
REMARK    5  A    between atoms: N_17  and  C_18 
REMARK    6  A    between atoms: C_18  and  C_20 
ROOT
HETATM    1  C   UNL     1     -23.281   9.552   1.038  1.00  0.00     0.152 A 
HETATM    2  C   UNL     1     -22.273   9.415   1.969  1.00  0.00     0.104 A 
HETATM    3  C   UNL     1     -21.481  10.524   2.214  1.00  0.00     0.108 A 
HETATM    4  N   UNL     1     -21.680  11.666   1.533  1.00  0.00    -0.339 N 
ATOM      5  HN  UNL     1     -21.119  12.497   1.719  1.00  0.00     0.168 HD
HETATM    6  C   UNL     1     -22.644  11.671   0.602  1.00  0.00     0.183 A 
HETATM    7  N   UNL     1     -23.463  10.660   0.305  1.00  0.00    -0.333 N 
ATOM      8  HN  UNL     1     -24.173  10.725  -0.424  1.00  0.00     0.168 HD
ENDROOT
BRANCH   1   9
HETATM    9  O   UNL     1     -24.149   8.473   0.884  1.00  0.00    -0.291 OA
BRANCH   9  10
HETATM   10  C   UNL     1     -25.513   8.729   0.880  1.00  0.00     0.105 A 
HETATM   11  C   UNL     1     -26.254   8.501  -0.311  1.00  0.00     0.085 A 
HETATM   12  N   UNL     1     -25.765   8.054  -1.543  1.00  0.00    -0.333 N 
HETATM   13  C   UNL     1     -27.628   8.756  -0.296  1.00  0.00     0.038 A 
HETATM   14  C   UNL     1     -26.728   8.078  -2.434  1.00  0.00     0.152 A 
ATOM     15  HN  UNL     1     -24.807   7.754  -1.722  1.00  0.00     0.168 HD
HETATM   16  S   UNL     1     -28.281   8.441  -1.849  1.00  0.00    -0.052 SA
HETATM   17  C   UNL     1     -28.309   9.204   0.846  1.00  0.00     0.021 A 
HETATM   18  C   UNL     1     -27.576   9.392   2.014  1.00  0.00     0.004 A 
HETATM   19  C   UNL     1     -26.208   9.137   2.038  1.00  0.00     0.040 A 
BRANCH  14  20
HETATM   20  N   UNL     1     -26.512   7.766  -3.756  1.00  0.00    -0.307 N 
HETATM   21  C   UNL     1     -25.797   6.679  -4.212  1.00  0.00     0.219 C 
HETATM   22  C   UNL     1     -25.718   6.630  -5.716  1.00  0.00     0.117 C 
HETATM   23  O   UNL     1     -25.264   5.802  -3.541  1.00  0.00    -0.274 OA
HETATM   24  H   UNL     1     -27.098   8.284  -4.396  1.00  0.00     0.171 HD
ENDBRANCH  14  20
ENDBRANCH   9  10
ENDBRANCH   1   9
BRANCH   3  25
HETATM   25  N   UNL     1     -20.527  10.492   3.220  1.00  0.00    -0.364 N 
HETATM   26  C   UNL     1     -19.106  10.500   2.832  1.00  0.00     0.154 C 
HETATM   27  C   UNL     1     -18.368   9.206   3.231  1.00  0.00     0.293 C 
HETATM   28  N   UNL     1     -18.552   8.794   4.649  1.00  0.00     0.100 N 
HETATM   29  C   UNL     1     -20.019   8.625   4.824  1.00  0.00     0.293 C 
HETATM   30  C   UNL     1     -20.875   9.881   4.512  1.00  0.00     0.154 C 
BRANCH  28  31
HETATM   31  C   UNL     1     -17.962   9.761   5.616  1.00  0.00     0.252 C 
HETATM   32  C   UNL     1     -18.595   9.633   7.014  1.00  0.00     0.048 C 
BRANCH  31  33
HETATM   33  C   UNL     1     -16.442   9.622   5.758  1.00  0.00    -0.025 A 
HETATM   34  C   UNL     1     -15.785   8.535   5.150  1.00  0.00     0.012 A 
HETATM   35  C   UNL     1     -14.407   8.365   5.290  1.00  0.00     0.043 A 
HETATM   36  C   UNL     1     -13.676   9.284   6.031  1.00  0.00     0.116 A 
HETATM   37  F   UNL     1     -12.355   9.113   6.172  1.00  0.00    -0.206 F 
HETATM   38  C   UNL     1     -14.296  10.373   6.630  1.00  0.00     0.043 A 
HETATM   39  C   UNL     1     -15.676  10.541   6.498  1.00  0.00     0.012 A 
ENDBRANCH  31  33
ENDBRANCH  28  31
ENDBRANCH   3  25
TORSDOF 6
ENDMDL
MODEL 5
REMARK VINA RESULT:      -8.5      2.192      3.090
REMARK  6 active torsions:
REMARK  status: ('A' for Active; 'I' for Inactive)
REMARK       I    between atoms: C_2  and  N_4 
REMARK    1  A    between atoms: N_4  and  C_5 
REMARK    2  A    between atoms: C_9  and  O_10 
REMARK    3  A    between atoms: O_10  and  C_11 
REMARK    4  A    between atoms: C_13  and  N_14 
REMARK    5  A    between atoms: N_17  and  C_18 
REMARK    6  A    between atoms: C_18  and  C_20 
ROOT
HETATM    1  C   UNL     1     -21.094  -8.555  -2.018  1.00  0.00     0.152 A 
HETATM    2  C   UNL     1     -21.019  -7.868  -3.210  1.00  0.00     0.104 A 
HETATM    3  C   UNL     1     -21.609  -6.616  -3.259  1.00  0.00     0.108 A 
HETATM    4  N   UNL     1     -22.255  -6.127  -2.188  1.00  0.00    -0.339 N 
ATOM      5  HN  UNL     1     -22.675  -5.197  -2.203  1.00  0.00     0.168 HD
HETATM    6  C   UNL     1     -22.327  -6.906  -1.099  1.00  0.00     0.183 A 
HETATM    7  N   UNL     1     -21.782  -8.115  -0.955  1.00  0.00    -0.333 N 
ATOM      8  HN  UNL     1     -21.881  -8.663  -0.100  1.00  0.00     0.168 HD
ENDROOT
BRANCH   1   9
HETATM    9  O   UNL     1     -20.396  -9.758  -1.937  1.00  0.00    -0.291 OA
BRANCH   9  10
HETATM   10  C   UNL     1     -20.868 -10.838  -2.670  1.00  0.00     0.105 A 
HETATM   11  C   UNL     1     -19.978 -11.525  -3.537  1.00  0.00     0.085 A 
HETATM   12  N   UNL     1     -18.631 -11.233  -3.779  1.00  0.00    -0.333 N 
HETATM   13  C   UNL     1     -20.468 -12.616  -4.262  1.00  0.00     0.038 A 
HETATM   14  C   UNL     1     -18.173 -12.016  -4.727  1.00  0.00     0.152 A 
ATOM     15  HN  UNL     1     -18.087 -10.521  -3.292  1.00  0.00     0.168 HD
HETATM   16  S   UNL     1     -19.220 -13.246  -5.253  1.00  0.00    -0.052 SA
HETATM   17  C   UNL     1     -21.790 -13.072  -4.153  1.00  0.00     0.021 A 
HETATM   18  C   UNL     1     -22.642 -12.408  -3.276  1.00  0.00     0.004 A 
HETATM   19  C   UNL     1     -22.184 -11.326  -2.531  1.00  0.00     0.040 A 
BRANCH  14  20
HETATM   20  N   UNL     1     -16.898 -11.894  -5.226  1.00  0.00    -0.307 N 
HETATM   21  C   UNL     1     -15.758 -11.717  -4.470  1.00  0.00     0.219 C 
HETATM   22  C   UNL     1     -14.518 -11.591  -5.316  1.00  0.00     0.117 C 
HETATM   23  O   UNL     1     -15.676 -11.667  -3.247  1.00  0.00    -0.274 OA
HETATM   24  H   UNL     1     -16.817 -12.154  -6.200  1.00  0.00     0.171 HD
ENDBRANCH  14  20
ENDBRANCH   9  10
ENDBRANCH   1   9
BRANCH   3  25
HETATM   25  N   UNL     1     -21.469  -5.822  -4.389  1.00  0.00    -0.364 N 
HETATM   26  C   UNL     1     -22.588  -5.769  -5.344  1.00  0.00     0.154 C 
HETATM   27  C   UNL     1     -22.226  -6.352  -6.726  1.00  0.00     0.293 C 
HETATM   28  N   UNL     1     -20.968  -5.821  -7.317  1.00  0.00     0.100 N 
HETATM   29  C   UNL     1     -19.903  -6.137  -6.328  1.00  0.00     0.293 C 
HETATM   30  C   UNL     1     -20.119  -5.553  -4.907  1.00  0.00     0.154 C 
BRANCH  28  31
HETATM   31  C   UNL     1     -21.045  -4.369  -7.639  1.00  0.00     0.252 C 
HETATM   32  C   UNL     1     -19.689  -3.812  -8.109  1.00  0.00     0.048 C 
BRANCH  31  33
HETATM   33  C   UNL     1     -22.099  -4.041  -8.703  1.00  0.00    -0.025 A 
HETATM   34  C   UNL     1     -21.685  -3.638  -9.987  1.00  0.00     0.012 A 
HETATM   35  C   UNL     1     -22.622  -3.301 -10.965  1.00  0.00     0.043 A 
HETATM   36  C   UNL     1     -23.977  -3.373 -10.669  1.00  0.00     0.116 A 
HETATM   37  F   UNL     1     -24.874  -3.040 -11.607  1.00  0.00    -0.206 F 
HETATM   38  C   UNL     1     -24.412  -3.782  -9.415  1.00  0.00     0.043 A 
HETATM   39  C   UNL     1     -23.477  -4.112  -8.432  1.00  0.00     0.012 A 
ENDBRANCH  31  33
ENDBRANCH  28  31
ENDBRANCH   3  25
TORSDOF 6
ENDMDL
MODEL 6
REMARK VINA RESULT:      -8.4      2.873      4.334
REMARK  6 active torsions:
REMARK  status: ('A' for Active; 'I' for Inactive)
REMARK       I    between atoms: C_2  and  N_4 
REMARK    1  A    between atoms: N_4  and  C_5 
REMARK    2  A    between atoms: C_9  and  O_10 
REMARK    3  A    between atoms: O_10  and  C_11 
REMARK    4  A    between atoms: C_13  and  N_14 
REMARK    5  A    between atoms: N_17  and  C_18 
REMARK    6  A    between atoms: C_18  and  C_20 
ROOT
HETATM    1  C   UNL     1     -21.572  -8.768  -2.508  1.00  0.00     0.152 A 
HETATM    2  C   UNL     1     -21.507  -8.013  -3.659  1.00  0.00     0.104 A 
HETATM    3  C   UNL     1     -21.681  -6.645  -3.531  1.00  0.00     0.108 A 
HETATM    4  N   UNL     1     -21.939  -6.102  -2.330  1.00  0.00    -0.339 N 
ATOM      5  HN  UNL     1     -22.048  -5.095  -2.217  1.00  0.00     0.168 HD
HETATM    6  C   UNL     1     -22.048  -6.935  -1.285  1.00  0.00     0.183 A 
HETATM    7  N   UNL     1     -21.885  -8.259  -1.309  1.00  0.00    -0.333 N 
ATOM      8  HN  UNL     1     -21.990  -8.840  -0.476  1.00  0.00     0.168 HD
ENDROOT
BRANCH   1   9
HETATM    9  O   UNL     1     -21.275 -10.125  -2.626  1.00  0.00    -0.291 OA
BRANCH   9  10
HETATM   10  C   UNL     1     -22.011 -11.022  -1.865  1.00  0.00     0.105 A 
HETATM   11  C   UNL     1     -21.327 -11.902  -0.984  1.00  0.00     0.085 A 
HETATM   12  N   UNL     1     -19.945 -12.004  -0.788  1.00  0.00    -0.333 N 
HETATM   13  C   UNL     1     -22.083 -12.794  -0.219  1.00  0.00     0.038 A 
HETATM   14  C   UNL     1     -19.687 -13.008   0.017  1.00  0.00     0.152 A 
ATOM     15  HN  UNL     1     -19.245 -11.392  -1.206  1.00  0.00     0.168 HD
HETATM   16  S   UNL     1     -21.033 -13.764   0.727  1.00  0.00    -0.052 SA
HETATM   17  C   UNL     1     -23.485 -12.843  -0.267  1.00  0.00     0.021 A 
HETATM   18  C   UNL     1     -24.142 -11.953  -1.111  1.00  0.00     0.004 A 
HETATM   19  C   UNL     1     -23.421 -11.044  -1.879  1.00  0.00     0.040 A 
BRANCH  14  20
HETATM   20  N   UNL     1     -18.403 -13.393   0.321  1.00  0.00    -0.307 N 
HETATM   21  C   UNL     1     -17.264 -12.667   0.038  1.00  0.00     0.219 C 
HETATM   22  C   UNL     1     -16.007 -13.372   0.475  1.00  0.00     0.117 C 
HETATM   23  O   UNL     1     -17.197 -11.565  -0.496  1.00  0.00    -0.274 OA
HETATM   24  H   UNL     1     -18.354 -14.168   0.967  1.00  0.00     0.171 HD
ENDBRANCH  14  20
ENDBRANCH   9  10
ENDBRANCH   1   9
BRANCH   3  25
HETATM   25  N   UNL     1     -21.513  -5.814  -4.629  1.00  0.00    -0.364 N 
HETATM   26  C   UNL     1     -22.601  -5.737  -5.617  1.00  0.00     0.154 C 
HETATM   27  C   UNL     1     -22.191  -6.271  -7.005  1.00  0.00     0.293 C 
HETATM   28  N   UNL     1     -20.919  -5.712  -7.538  1.00  0.00     0.100 N 
HETATM   29  C   UNL     1     -19.883  -6.053  -6.527  1.00  0.00     0.293 C 
HETATM   30  C   UNL     1     -20.149  -5.518  -5.095  1.00  0.00     0.154 C 
BRANCH  28  31
HETATM   31  C   UNL     1     -20.998  -4.251  -7.815  1.00  0.00     0.252 C 
HETATM   32  C   UNL     1     -19.640  -3.677  -8.261  1.00  0.00     0.048 C 
BRANCH  31  33
HETATM   33  C   UNL     1     -22.048  -3.891  -8.872  1.00  0.00    -0.025 A 
HETATM   34  C   UNL     1     -23.415  -4.005  -8.558  1.00  0.00     0.012 A 
HETATM   35  C   UNL     1     -24.393  -3.717  -9.511  1.00  0.00     0.043 A 
HETATM   36  C   UNL     1     -24.010  -3.306 -10.782  1.00  0.00     0.116 A 
HETATM   37  F   UNL     1     -24.950  -3.039 -11.698  1.00  0.00    -0.206 F 
HETATM   38  C   UNL     1     -22.668  -3.171 -11.113  1.00  0.00     0.043 A 
HETATM   39  C   UNL     1     -21.688  -3.466 -10.164  1.00  0.00     0.012 A 
ENDBRANCH  31  33
ENDBRANCH  28  31
ENDBRANCH   3  25
TORSDOF 6
ENDMDL
MODEL 7
REMARK VINA RESULT:      -8.3      4.405      6.626
REMARK  6 active torsions:
REMARK  status: ('A' for Active; 'I' for Inactive)
REMARK       I    between atoms: C_2  and  N_4 
REMARK    1  A    between atoms: N_4  and  C_5 
REMARK    2  A    between atoms: C_9  and  O_10 
REMARK    3  A    between atoms: O_10  and  C_11 
REMARK    4  A    between atoms: C_13  and  N_14 
REMARK    5  A    between atoms: N_17  and  C_18 
REMARK    6  A    between atoms: C_18  and  C_20 
ROOT
HETATM    1  C   UNL     1     -15.791 -13.926  -0.507  1.00  0.00     0.152 A 
HETATM    2  C   UNL     1     -16.946 -13.281  -0.894  1.00  0.00     0.104 A 
HETATM    3  C   UNL     1     -18.126 -13.671  -0.283  1.00  0.00     0.108 A 
HETATM    4  N   UNL     1     -18.127 -14.666   0.620  1.00  0.00    -0.339 N 
ATOM      5  HN  UNL     1     -18.984 -14.949   1.094  1.00  0.00     0.168 HD
HETATM    6  C   UNL     1     -16.958 -15.272   0.874  1.00  0.00     0.183 A 
HETATM    7  N   UNL     1     -15.773 -14.959   0.347  1.00  0.00    -0.333 N 
ATOM      8  HN  UNL     1     -14.919 -15.467   0.576  1.00  0.00     0.168 HD
ENDROOT
BRANCH   1   9
HETATM    9  O   UNL     1     -14.593 -13.447  -1.035  1.00  0.00    -0.291 OA
BRANCH   9  10
HETATM   10  C   UNL     1     -14.086 -14.065  -2.169  1.00  0.00     0.105 A 
HETATM   11  C   UNL     1     -14.281 -13.452  -3.434  1.00  0.00     0.085 A 
HETATM   12  N   UNL     1     -14.968 -12.263  -3.707  1.00  0.00    -0.333 N 
HETATM   13  C   UNL     1     -13.756 -14.083  -4.566  1.00  0.00     0.038 A 
HETATM   14  C   UNL     1     -15.036 -12.081  -5.004  1.00  0.00     0.152 A 
ATOM     15  HN  UNL     1     -15.356 -11.634  -3.004  1.00  0.00     0.168 HD
HETATM   16  S   UNL     1     -14.155 -13.172  -5.962  1.00  0.00    -0.052 SA
HETATM   17  C   UNL     1     -13.028 -15.281  -4.502  1.00  0.00     0.021 A 
HETATM   18  C   UNL     1     -12.818 -15.854  -3.251  1.00  0.00     0.004 A 
HETATM   19  C   UNL     1     -13.317 -15.246  -2.103  1.00  0.00     0.040 A 
BRANCH  14  20
HETATM   20  N   UNL     1     -15.728 -11.031  -5.561  1.00  0.00    -0.307 N 
HETATM   21  C   UNL     1     -17.046 -10.718  -5.304  1.00  0.00     0.219 C 
HETATM   22  C   UNL     1     -17.521  -9.525  -6.092  1.00  0.00     0.117 C 
HETATM   23  O   UNL     1     -17.810 -11.286  -4.530  1.00  0.00    -0.274 OA
HETATM   24  H   UNL     1     -15.137 -10.360  -6.031  1.00  0.00     0.171 HD
ENDBRANCH  14  20
ENDBRANCH   9  10
ENDBRANCH   1   9
BRANCH   3  25
HETATM   25  N   UNL     1     -19.305 -12.986  -0.538  1.00  0.00    -0.364 N 
HETATM   26  C   UNL     1     -19.289 -11.517  -0.449  1.00  0.00     0.154 C 
HETATM   27  C   UNL     1     -20.192 -10.974   0.678  1.00  0.00     0.293 C 
HETATM   28  N   UNL     1     -21.578 -11.514   0.682  1.00  0.00     0.100 N 
HETATM   29  C   UNL     1     -21.428 -12.988   0.805  1.00  0.00     0.293 C 
HETATM   30  C   UNL     1     -20.588 -13.668  -0.308  1.00  0.00     0.154 C 
BRANCH  28  31
HETATM   31  C   UNL     1     -22.361 -11.111  -0.520  1.00  0.00     0.252 C 
HETATM   32  C   UNL     1     -23.835 -11.546  -0.418  1.00  0.00     0.048 C 
BRANCH  31  33
HETATM   33  C   UNL     1     -22.318  -9.604  -0.793  1.00  0.00    -0.025 A 
HETATM   34  C   UNL     1     -21.708  -9.130  -1.970  1.00  0.00     0.012 A 
HETATM   35  C   UNL     1     -21.624  -7.761  -2.229  1.00  0.00     0.043 A 
HETATM   36  C   UNL     1     -22.156  -6.858  -1.317  1.00  0.00     0.116 A 
HETATM   37  F   UNL     1     -22.066  -5.544  -1.563  1.00  0.00    -0.206 F 
HETATM   38  C   UNL     1     -22.776  -7.299  -0.155  1.00  0.00     0.043 A 
HETATM   39  C   UNL     1     -22.855  -8.668   0.109  1.00  0.00     0.012 A 
ENDBRANCH  31  33
ENDBRANCH  28  31
ENDBRANCH   3  25
TORSDOF 6
ENDMDL
MODEL 8
REMARK VINA RESULT:      -8.2      4.140      7.293
REMARK  6 active torsions:
REMARK  status: ('A' for Active; 'I' for Inactive)
REMARK       I    between atoms: C_2  and  N_4 
REMARK    1  A    between atoms: N_4  and  C_5 
REMARK    2  A    between atoms: C_9  and  O_10 
REMARK    3  A    between atoms: O_10  and  C_11 
REMARK    4  A    between atoms: C_13  and  N_14 
REMARK    5  A    between atoms: N_17  and  C_18 
REMARK    6  A    between atoms: C_18  and  C_20 
ROOT
HETATM    1  C   UNL     1     -20.679  -8.594  -2.096  1.00  0.00     0.152 A 
HETATM    2  C   UNL     1     -19.968  -9.446  -2.913  1.00  0.00     0.104 A 
HETATM    3  C   UNL     1     -19.736  -9.032  -4.214  1.00  0.00     0.108 A 
HETATM    4  N   UNL     1     -20.227  -7.861  -4.652  1.00  0.00    -0.339 N 
ATOM      5  HN  UNL     1     -20.045  -7.533  -5.601  1.00  0.00     0.168 HD
HETATM    6  C   UNL     1     -20.963  -7.138  -3.795  1.00  0.00     0.183 A 
HETATM    7  N   UNL     1     -21.228  -7.448  -2.525  1.00  0.00    -0.333 N 
ATOM      8  HN  UNL     1     -21.805  -6.858  -1.925  1.00  0.00     0.168 HD
ENDROOT
BRANCH   1   9
HETATM    9  O   UNL     1     -20.804  -8.960  -0.758  1.00  0.00    -0.291 OA
BRANCH   9  10
HETATM   10  C   UNL     1     -21.722  -9.948  -0.434  1.00  0.00     0.105 A 
HETATM   11  C   UNL     1     -21.250 -11.247  -0.104  1.00  0.00     0.085 A 
HETATM   12  N   UNL     1     -19.923 -11.689  -0.083  1.00  0.00    -0.333 N 
HETATM   13  C   UNL     1     -22.188 -12.229   0.228  1.00  0.00     0.038 A 
HETATM   14  C   UNL     1     -19.892 -12.979   0.155  1.00  0.00     0.152 A 
ATOM     15  HN  UNL     1     -19.104 -11.099  -0.229  1.00  0.00     0.168 HD
HETATM   16  S   UNL     1     -21.377 -13.705   0.546  1.00  0.00    -0.052 SA
HETATM   17  C   UNL     1     -23.569 -11.982   0.271  1.00  0.00     0.021 A 
HETATM   18  C   UNL     1     -24.014 -10.697  -0.024  1.00  0.00     0.004 A 
HETATM   19  C   UNL     1     -23.107  -9.692  -0.347  1.00  0.00     0.040 A 
BRANCH  14  20
HETATM   20  N   UNL     1     -18.719 -13.697   0.152  1.00  0.00    -0.307 N 
HETATM   21  C   UNL     1     -17.469 -13.184   0.427  1.00  0.00     0.219 C 
HETATM   22  C   UNL     1     -16.382 -14.221   0.314  1.00  0.00     0.117 C 
HETATM   23  O   UNL     1     -17.189 -12.033   0.743  1.00  0.00    -0.274 OA
HETATM   24  H   UNL     1     -18.857 -14.698   0.134  1.00  0.00     0.171 HD
ENDBRANCH  14  20
ENDBRANCH   9  10
ENDBRANCH   1   9
BRANCH   3  25
HETATM   25  N   UNL     1     -18.929  -9.786  -5.054  1.00  0.00    -0.364 N 
HETATM   26  C   UNL     1     -19.496 -11.005  -5.654  1.00  0.00     0.154 C 
HETATM   27  C   UNL     1     -18.786 -12.292  -5.184  1.00  0.00     0.293 C 
HETATM   28  N   UNL     1     -17.302 -12.260  -5.291  1.00  0.00     0.100 N 
HETATM   29  C   UNL     1     -16.871 -11.102  -4.465  1.00  0.00     0.293 C 
HETATM   30  C   UNL     1     -17.470  -9.731  -4.876  1.00  0.00     0.154 C 
BRANCH  28  31
HETATM   31  C   UNL     1     -16.823 -12.176  -6.699  1.00  0.00     0.252 C 
HETATM   32  C   UNL     1     -15.289 -12.077  -6.778  1.00  0.00     0.048 C 
BRANCH  31  33
HETATM   33  C   UNL     1     -17.278 -13.357  -7.564  1.00  0.00    -0.025 A 
HETATM   34  C   UNL     1     -18.068 -13.118  -8.704  1.00  0.00     0.012 A 
HETATM   35  C   UNL     1     -18.525 -14.175  -9.491  1.00  0.00     0.043 A 
HETATM   36  C   UNL     1     -18.188 -15.479  -9.148  1.00  0.00     0.116 A 
HETATM   37  F   UNL     1     -18.635 -16.493  -9.900  1.00  0.00    -0.206 F 
HETATM   38  C   UNL     1     -17.397 -15.742  -8.037  1.00  0.00     0.043 A 
HETATM   39  C   UNL     1     -16.946 -14.686  -7.244  1.00  0.00     0.012 A 
ENDBRANCH  31  33
ENDBRANCH  28  31
ENDBRANCH   3  25
TORSDOF 6
ENDMDL
MODEL 9
REMARK VINA RESULT:      -8.2      4.961     10.525
REMARK  6 active torsions:
REMARK  status: ('A' for Active; 'I' for Inactive)
REMARK       I    between atoms: C_2  and  N_4 
REMARK    1  A    between atoms: N_4  and  C_5 
REMARK    2  A    between atoms: C_9  and  O_10 
REMARK    3  A    between atoms: O_10  and  C_11 
REMARK    4  A    between atoms: C_13  and  N_14 
REMARK    5  A    between atoms: N_17  and  C_18 
REMARK    6  A    between atoms: C_18  and  C_20 
ROOT
HETATM    1  C   UNL     1     -19.823 -10.993  -3.087  1.00  0.00     0.152 A 
HETATM    2  C   UNL     1     -19.048 -11.503  -2.067  1.00  0.00     0.104 A 
HETATM    3  C   UNL     1     -17.685 -11.599  -2.293  1.00  0.00     0.108 A 
HETATM    4  N   UNL     1     -17.166 -11.240  -3.478  1.00  0.00    -0.339 N 
ATOM      5  HN  UNL     1     -16.162 -11.285  -3.651  1.00  0.00     0.168 HD
HETATM    6  C   UNL     1     -18.017 -10.820  -4.426  1.00  0.00     0.183 A 
HETATM    7  N   UNL     1     -19.338 -10.683  -4.297  1.00  0.00    -0.333 N 
ATOM      8  HN  UNL     1     -19.934 -10.365  -5.062  1.00  0.00     0.168 HD
ENDROOT
BRANCH   1   9
HETATM    9  O   UNL     1     -21.173 -10.785  -2.811  1.00  0.00    -0.291 OA
BRANCH   9  10
HETATM   10  C   UNL     1     -21.507  -9.795  -1.897  1.00  0.00     0.105 A 
HETATM   11  C   UNL     1     -21.598  -8.449  -2.341  1.00  0.00     0.085 A 
HETATM   12  N   UNL     1     -21.363  -7.962  -3.631  1.00  0.00    -0.333 N 
HETATM   13  C   UNL     1     -21.944  -7.466  -1.410  1.00  0.00     0.038 A 
HETATM   14  C   UNL     1     -21.431  -6.651  -3.627  1.00  0.00     0.152 A 
ATOM     15  HN  UNL     1     -21.168  -8.537  -4.451  1.00  0.00     0.168 HD
HETATM   16  S   UNL     1     -21.950  -5.933  -2.177  1.00  0.00    -0.052 SA
HETATM   17  C   UNL     1     -22.226  -7.753  -0.066  1.00  0.00     0.021 A 
HETATM   18  C   UNL     1     -22.165  -9.081   0.347  1.00  0.00     0.004 A 
HETATM   19  C   UNL     1     -21.834 -10.086  -0.556  1.00  0.00     0.040 A 
BRANCH  14  20
HETATM   20  N   UNL     1     -21.161  -5.899  -4.746  1.00  0.00    -0.307 N 
HETATM   21  C   UNL     1     -20.442  -6.330  -5.842  1.00  0.00     0.219 C 
HETATM   22  C   UNL     1     -20.297  -5.260  -6.892  1.00  0.00     0.117 C 
HETATM   23  O   UNL     1     -19.954  -7.440  -6.024  1.00  0.00    -0.274 OA
HETATM   24  H   UNL     1     -21.709  -5.053  -4.808  1.00  0.00     0.171 HD
ENDBRANCH  14  20
ENDBRANCH   9  10
ENDBRANCH   1   9
BRANCH   3  25
HETATM   25  N   UNL     1     -16.834 -11.992  -1.270  1.00  0.00    -0.364 N 
HETATM   26  C   UNL     1     -15.551 -12.615  -1.634  1.00  0.00     0.154 C 
HETATM   27  C   UNL     1     -15.442 -14.081  -1.166  1.00  0.00     0.293 C 
HETATM   28  N   UNL     1     -15.780 -14.306   0.266  1.00  0.00     0.100 N 
HETATM   29  C   UNL     1     -17.175 -13.817   0.423  1.00  0.00     0.293 C 
HETATM   30  C   UNL     1     -17.407 -12.330   0.042  1.00  0.00     0.154 C 
BRANCH  28  31
HETATM   31  C   UNL     1     -14.827 -13.644   1.199  1.00  0.00     0.252 C 
HETATM   32  C   UNL     1     -15.418 -13.493   2.613  1.00  0.00     0.048 C 
BRANCH  31  33
HETATM   33  C   UNL     1     -13.484 -14.375   1.311  1.00  0.00    -0.025 A 
HETATM   34  C   UNL     1     -12.336 -13.808   0.726  1.00  0.00     0.012 A 
HETATM   35  C   UNL     1     -11.107 -14.467   0.783  1.00  0.00     0.043 A 
HETATM   36  C   UNL     1     -11.016 -15.692   1.431  1.00  0.00     0.116 A 
HETATM   37  F   UNL     1      -9.838 -16.327   1.476  1.00  0.00    -0.206 F 
HETATM   38  C   UNL     1     -12.130 -16.266   2.029  1.00  0.00     0.043 A 
HETATM   39  C   UNL     1     -13.363 -15.613   1.967  1.00  0.00     0.012 A 
ENDBRANCH  31  33
ENDBRANCH  28  31
ENDBRANCH   3  25
TORSDOF 6
ENDMDL
