MODEL 1
REMARK VINA RESULT:     -10.8      0.000      0.000
REMARK  11 active torsions:
REMARK  status: ('A' for Active; 'I' for Inactive)
REMARK    1  A    between atoms: C_2  and  C_4 
REMARK    2  A    between atoms: C_10  and  C_11 
REMARK    3  A    between atoms: C_11  and  C_12 
REMARK    4  A    between atoms: C_22  and  C_23 
REMARK    5  A    between atoms: C_23  and  O_24 
REMARK    6  A    between atoms: O_24  and  C_25 
REMARK    7  A    between atoms: C_25  and  C_27 
REMARK    8  A    between atoms: C_27  and  C_28 
REMARK    9  A    between atoms: C_31  and  O_32 
REMARK   10  A    between atoms: C_33  and  O_34 
REMARK   11  A    between atoms: C_38  and  O_39 
ROOT
HETATM    1  C   UNL     1     -19.926 -12.028  -6.161  1.00  0.00     0.116 C 
HETATM    2  C   UNL     1     -20.733 -12.769  -5.079  1.00  0.00     0.053 C 
HETATM    3  C   UNL     1     -20.268 -12.501  -3.670  1.00  0.00     0.020 C 
HETATM    4  C   UNL     1     -19.052 -13.353  -3.202  1.00  0.00     0.013 C 
HETATM    5  C   UNL     1     -20.010 -10.994  -3.418  1.00  0.00     0.083 C 
HETATM    6  O   UNL     1     -18.624 -10.772  -3.783  1.00  0.00    -0.320 OA
HETATM    7  C   UNL     1     -18.365 -10.604  -5.242  1.00  0.00     0.288 C 
HETATM    8  O   UNL     1     -19.092  -9.652  -5.965  1.00  0.00    -0.323 OA
HETATM    9  C   UNL     1     -20.352 -10.298  -5.848  1.00  0.00     0.173 C 
HETATM   10  C   UNL     1     -20.693  -9.941  -4.297  1.00  0.00     0.054 C 
HETATM   11  C   UNL     1     -19.959  -8.591  -3.754  1.00  0.00     0.017 C 
HETATM   12  C   UNL     1     -20.484  -7.809  -2.798  1.00  0.00     0.014 C 
HETATM   13  C   UNL     1     -20.154  -8.220  -1.372  1.00  0.00     0.053 C 
HETATM   14  C   UNL     1     -20.913  -9.519  -1.135  1.00  0.00     0.125 C 
HETATM   15  C   UNL     1     -20.858  -9.996   0.305  1.00  0.00     0.165 C 
HETATM   16  O   UNL     1     -21.132  -9.311   1.282  1.00  0.00    -0.294 OA
HETATM   17  C   UNL     1     -20.677 -11.485   0.381  1.00  0.00     0.055 C 
HETATM   18  C   UNL     1     -22.053 -12.100   0.598  1.00  0.00     0.018 C 
HETATM   19  C   UNL     1     -19.976 -11.687  -0.760  1.00  0.00     0.023 C 
HETATM   20  C   UNL     1     -20.511 -10.811  -1.894  1.00  0.00     0.064 C 
HETATM   21  O   UNL     1     -18.573 -11.825  -5.784  1.00  0.00    -0.314 OA
ENDROOT
BRANCH  12  22
HETATM   22  C   UNL     1     -21.798  -7.131  -2.987  1.00  0.00     0.183 C 
BRANCH  22  23
HETATM   23  O   UNL     1     -21.579  -5.898  -3.678  1.00  0.00    -0.321 OA
BRANCH  23  24
HETATM   24  C   UNL     1     -21.474  -6.011  -5.029  1.00  0.00     0.263 C 
HETATM   25  O   UNL     1     -22.028  -6.851  -5.724  1.00  0.00    -0.265 OA
BRANCH  24  26
HETATM   26  C   UNL     1     -20.549  -4.954  -5.557  1.00  0.00     0.149 C 
BRANCH  26  27
HETATM   27  C   UNL     1     -20.895  -4.564  -6.961  1.00  0.00    -0.046 A 
HETATM   28  C   UNL     1     -19.898  -4.568  -7.938  1.00  0.00     0.010 A 
HETATM   29  C   UNL     1     -20.184  -4.154  -9.255  1.00  0.00     0.040 A 
HETATM   30  C   UNL     1     -21.490  -3.846  -9.592  1.00  0.00     0.099 A 
HETATM   31  C   UNL     1     -22.530  -3.895  -8.630  1.00  0.00     0.101 A 
HETATM   32  C   UNL     1     -22.227  -4.286  -7.322  1.00  0.00     0.047 A 
BRANCH  30  33
HETATM   33  O   UNL     1     -21.759  -3.416 -10.863  1.00  0.00    -0.358 OA
HETATM   34  H   UNL     1     -21.406  -4.062 -11.494  1.00  0.00     0.217 HD
ENDBRANCH  30  33
BRANCH  31  35
HETATM   35  O   UNL     1     -23.850  -3.616  -8.849  1.00  0.00    -0.353 OA
HETATM   36  C   UNL     1     -24.517  -4.467  -9.774  1.00  0.00     0.210 C 
ENDBRANCH  31  35
ENDBRANCH  26  27
ENDBRANCH  24  26
ENDBRANCH  23  24
ENDBRANCH  22  23
ENDBRANCH  12  22
BRANCH  14  37
HETATM   37  O   UNL     1     -22.341  -9.297  -1.319  1.00  0.00    -0.382 OA
HETATM   38  H   UNL     1     -22.702 -10.127  -1.692  1.00  0.00     0.211 HD
ENDBRANCH  14  37
BRANCH   1  39
HETATM   39  C   UNL     1     -19.221 -13.291  -7.048  1.00  0.00    -0.056 C 
HETATM   40  C   UNL     1     -18.765 -13.207  -8.328  1.00  0.00     0.017 C 
HETATM   41  C   UNL     1     -19.523 -14.829  -6.706  1.00  0.00     0.046 C 
ENDBRANCH   1  39
BRANCH   7  42
HETATM   42  C   UNL     1     -16.931 -10.317  -5.295  1.00  0.00     0.140 C 
BRANCH  42  43
HETATM   43  C   UNL     1     -15.709 -11.125  -5.550  1.00  0.00    -0.051 A 
HETATM   44  C   UNL     1     -15.120 -11.695  -6.664  1.00  0.00     0.007 A 
HETATM   45  C   UNL     1     -13.982 -12.521  -6.434  1.00  0.00     0.001 A 
HETATM   46  C   UNL     1     -13.477 -12.729  -5.183  1.00  0.00     0.000 A 
HETATM   47  C   UNL     1     -14.128 -12.274  -4.032  1.00  0.00     0.001 A 
HETATM   48  C   UNL     1     -15.249 -11.492  -4.263  1.00  0.00     0.007 A 
ENDBRANCH  42  43
ENDBRANCH   7  42
TORSDOF 11
ENDMDL
MODEL 2
REMARK VINA RESULT:     -10.3      2.630      8.777
REMARK  11 active torsions:
REMARK  status: ('A' for Active; 'I' for Inactive)
REMARK    1  A    between atoms: C_2  and  C_4 
REMARK    2  A    between atoms: C_10  and  C_11 
REMARK    3  A    between atoms: C_11  and  C_12 
REMARK    4  A    between atoms: C_22  and  C_23 
REMARK    5  A    between atoms: C_23  and  O_24 
REMARK    6  A    between atoms: O_24  and  C_25 
REMARK    7  A    between atoms: C_25  and  C_27 
REMARK    8  A    between atoms: C_27  and  C_28 
REMARK    9  A    between atoms: C_31  and  O_32 
REMARK   10  A    between atoms: C_33  and  O_34 
REMARK   11  A    between atoms: C_38  and  O_39 
ROOT
HETATM    1  C   UNL     1     -21.159 -10.122  -1.482  1.00  0.00     0.116 C 
HETATM    2  C   UNL     1     -21.613 -11.532  -1.901  1.00  0.00     0.053 C 
HETATM    3  C   UNL     1     -21.756 -11.717  -3.391  1.00  0.00     0.020 C 
HETATM    4  C   UNL     1     -23.101 -11.216  -3.994  1.00  0.00     0.013 C 
HETATM    5  C   UNL     1     -20.553 -11.126  -4.169  1.00  0.00     0.083 C 
HETATM    6  O   UNL     1     -20.905  -9.744  -4.435  1.00  0.00    -0.320 OA
HETATM    7  C   UNL     1     -20.678  -8.798  -3.305  1.00  0.00     0.288 C 
HETATM    8  O   UNL     1     -19.422  -8.745  -2.692  1.00  0.00    -0.323 OA
HETATM    9  C   UNL     1     -19.471 -10.047  -2.127  1.00  0.00     0.173 C 
HETATM   10  C   UNL     1     -19.205 -10.931  -3.467  1.00  0.00     0.054 C 
HETATM   11  C   UNL     1     -18.385 -10.137  -4.630  1.00  0.00     0.017 C 
HETATM   12  C   UNL     1     -17.584 -10.756  -5.511  1.00  0.00     0.014 C 
HETATM   13  C   UNL     1     -18.277 -11.283  -6.758  1.00  0.00     0.053 C 
HETATM   14  C   UNL     1     -19.141 -12.445  -6.284  1.00  0.00     0.125 C 
HETATM   15  C   UNL     1     -19.776 -13.226  -7.420  1.00  0.00     0.165 C 
HETATM   16  O   UNL     1     -19.172 -13.680  -8.383  1.00  0.00    -0.294 OA
HETATM   17  C   UNL     1     -21.194 -13.603  -7.097  1.00  0.00     0.055 C 
HETATM   18  C   UNL     1     -21.178 -15.037  -6.585  1.00  0.00     0.018 C 
HETATM   19  C   UNL     1     -21.530 -12.563  -6.297  1.00  0.00     0.023 C 
HETATM   20  C   UNL     1     -20.370 -12.186  -5.373  1.00  0.00     0.064 C 
HETATM   21  O   UNL     1     -21.609  -9.118  -2.379  1.00  0.00    -0.314 OA
ENDROOT
BRANCH  12  22
HETATM   22  C   UNL     1     -16.388 -11.524  -5.063  1.00  0.00     0.183 C 
BRANCH  22  23
HETATM   23  O   UNL     1     -15.678 -10.741  -4.101  1.00  0.00    -0.321 OA
BRANCH  23  24
HETATM   24  C   UNL     1     -15.254 -11.426  -3.005  1.00  0.00     0.263 C 
HETATM   25  O   UNL     1     -14.505 -12.393  -3.009  1.00  0.00    -0.265 OA
BRANCH  24  26
HETATM   26  C   UNL     1     -15.863 -10.834  -1.768  1.00  0.00     0.149 C 
BRANCH  26  27
HETATM   27  C   UNL     1     -16.226 -11.889  -0.769  1.00  0.00    -0.046 A 
HETATM   28  C   UNL     1     -15.572 -11.918   0.463  1.00  0.00     0.010 A 
HETATM   29  C   UNL     1     -15.855 -12.933   1.401  1.00  0.00     0.040 A 
HETATM   30  C   UNL     1     -16.867 -13.837   1.126  1.00  0.00     0.099 A 
HETATM   31  C   UNL     1     -17.587 -13.786  -0.094  1.00  0.00     0.101 A 
HETATM   32  C   UNL     1     -17.279 -12.788  -1.023  1.00  0.00     0.047 A 
BRANCH  30  33
HETATM   33  O   UNL     1     -17.119 -14.837   2.025  1.00  0.00    -0.358 OA
HETATM   34  H   UNL     1     -17.065 -15.690   1.568  1.00  0.00     0.217 HD
ENDBRANCH  30  33
BRANCH  31  35
HETATM   35  O   UNL     1     -18.603 -14.620  -0.470  1.00  0.00    -0.353 OA
HETATM   36  C   UNL     1     -19.154 -14.381  -1.760  1.00  0.00     0.210 C 
ENDBRANCH  31  35
ENDBRANCH  26  27
ENDBRANCH  24  26
ENDBRANCH  23  24
ENDBRANCH  22  23
ENDBRANCH  12  22
BRANCH  14  37
HETATM   37  O   UNL     1     -18.303 -13.460  -5.657  1.00  0.00    -0.382 OA
HETATM   38  H   UNL     1     -18.163 -13.168  -4.734  1.00  0.00     0.211 HD
ENDBRANCH  14  37
BRANCH   1  39
HETATM   39  C   UNL     1     -22.477  -9.545  -0.581  1.00  0.00    -0.056 C 
HETATM   40  C   UNL     1     -22.452  -8.494   0.283  1.00  0.00     0.017 C 
HETATM   41  C   UNL     1     -23.719 -10.490  -0.210  1.00  0.00     0.046 C 
ENDBRANCH   1  39
BRANCH   7  42
HETATM   42  C   UNL     1     -21.033  -7.500  -3.882  1.00  0.00     0.140 C 
BRANCH  42  43
HETATM   43  C   UNL     1     -20.822  -6.847  -5.201  1.00  0.00    -0.051 A 
HETATM   44  C   UNL     1     -19.763  -6.729  -6.084  1.00  0.00     0.007 A 
HETATM   45  C   UNL     1     -19.962  -5.881  -7.211  1.00  0.00     0.001 A 
HETATM   46  C   UNL     1     -21.142  -5.229  -7.430  1.00  0.00     0.000 A 
HETATM   47  C   UNL     1     -22.177  -5.227  -6.490  1.00  0.00     0.001 A 
HETATM   48  C   UNL     1     -21.966  -6.035  -5.384  1.00  0.00     0.007 A 
ENDBRANCH  42  43
ENDBRANCH   7  42
TORSDOF 11
ENDMDL
MODEL 3
REMARK VINA RESULT:     -10.3      2.540      8.688
REMARK  11 active torsions:
REMARK  status: ('A' for Active; 'I' for Inactive)
REMARK    1  A    between atoms: C_2  and  C_4 
REMARK    2  A    between atoms: C_10  and  C_11 
REMARK    3  A    between atoms: C_11  and  C_12 
REMARK    4  A    between atoms: C_22  and  C_23 
REMARK    5  A    between atoms: C_23  and  O_24 
REMARK    6  A    between atoms: O_24  and  C_25 
REMARK    7  A    between atoms: C_25  and  C_27 
REMARK    8  A    between atoms: C_27  and  C_28 
REMARK    9  A    between atoms: C_31  and  O_32 
REMARK   10  A    between atoms: C_33  and  O_34 
REMARK   11  A    between atoms: C_38  and  O_39 
ROOT
HETATM    1  C   UNL     1     -20.779  -8.838  -2.044  1.00  0.00     0.116 C 
HETATM    2  C   UNL     1     -21.139 -10.311  -1.783  1.00  0.00     0.053 C 
HETATM    3  C   UNL     1     -21.558 -11.073  -3.016  1.00  0.00     0.020 C 
HETATM    4  C   UNL     1     -23.046 -10.889  -3.433  1.00  0.00     0.013 C 
HETATM    5  C   UNL     1     -20.615 -10.801  -4.215  1.00  0.00     0.083 C 
HETATM    6  O   UNL     1     -21.172  -9.647  -4.893  1.00  0.00    -0.320 OA
HETATM    7  C   UNL     1     -20.835  -8.326  -4.290  1.00  0.00     0.288 C 
HETATM    8  O   UNL     1     -19.495  -8.000  -4.052  1.00  0.00    -0.323 OA
HETATM    9  C   UNL     1     -19.276  -8.975  -3.042  1.00  0.00     0.173 C 
HETATM   10  C   UNL     1     -19.185 -10.307  -3.972  1.00  0.00     0.054 C 
HETATM   11  C   UNL     1     -18.716 -10.013  -5.504  1.00  0.00     0.017 C 
HETATM   12  C   UNL     1     -18.043 -10.905  -6.247  1.00  0.00     0.014 C 
HETATM   13  C   UNL     1     -18.907 -11.900  -7.005  1.00  0.00     0.053 C 
HETATM   14  C   UNL     1     -19.515 -12.806  -5.941  1.00  0.00     0.125 C 
HETATM   15  C   UNL     1     -20.271 -13.989  -6.518  1.00  0.00     0.165 C 
HETATM   16  O   UNL     1     -19.825 -14.769  -7.350  1.00  0.00    -0.294 OA
HETATM   17  C   UNL     1     -21.540 -14.249  -5.757  1.00  0.00     0.055 C 
HETATM   18  C   UNL     1     -21.253 -15.364  -4.761  1.00  0.00     0.018 C 
HETATM   19  C   UNL     1     -21.826 -12.989  -5.355  1.00  0.00     0.023 C 
HETATM   20  C   UNL     1     -20.556 -12.245  -4.937  1.00  0.00     0.064 C 
HETATM   21  O   UNL     1     -21.515  -8.282  -3.123  1.00  0.00    -0.314 OA
ENDROOT
BRANCH  12  22
HETATM   22  C   UNL     1     -16.699 -11.399  -5.832  1.00  0.00     0.183 C 
BRANCH  22  23
HETATM   23  O   UNL     1     -16.154 -10.488  -4.875  1.00  0.00    -0.321 OA
BRANCH  23  24
HETATM   24  C   UNL     1     -15.424 -11.068  -3.885  1.00  0.00     0.263 C 
HETATM   25  O   UNL     1     -14.594 -11.955  -4.031  1.00  0.00    -0.265 OA
BRANCH  24  26
HETATM   26  C   UNL     1     -15.802 -10.473  -2.560  1.00  0.00     0.149 C 
BRANCH  26  27
HETATM   27  C   UNL     1     -16.445 -11.484  -1.661  1.00  0.00    -0.046 A 
HETATM   28  C   UNL     1     -17.520 -12.236  -2.137  1.00  0.00     0.010 A 
HETATM   29  C   UNL     1     -18.180 -13.156  -1.295  1.00  0.00     0.040 A 
HETATM   30  C   UNL     1     -17.680 -13.379  -0.024  1.00  0.00     0.099 A 
HETATM   31  C   UNL     1     -16.551 -12.669   0.457  1.00  0.00     0.101 A 
HETATM   32  C   UNL     1     -15.922 -11.745  -0.381  1.00  0.00     0.047 A 
BRANCH  30  33
HETATM   33  O   UNL     1     -18.340 -14.249   0.799  1.00  0.00    -0.358 OA
HETATM   34  H   UNL     1     -17.729 -14.554   1.488  1.00  0.00     0.217 HD
ENDBRANCH  30  33
BRANCH  31  35
HETATM   35  O   UNL     1     -15.971 -12.809   1.687  1.00  0.00    -0.353 OA
HETATM   36  C   UNL     1     -14.800 -13.616   1.731  1.00  0.00     0.210 C 
ENDBRANCH  31  35
ENDBRANCH  26  27
ENDBRANCH  24  26
ENDBRANCH  23  24
ENDBRANCH  22  23
ENDBRANCH  12  22
BRANCH  14  37
HETATM   37  O   UNL     1     -18.455 -13.467  -5.191  1.00  0.00    -0.382 OA
HETATM   38  H   UNL     1     -18.729 -14.402  -5.095  1.00  0.00     0.211 HD
ENDBRANCH  14  37
BRANCH   1  39
HETATM   39  C   UNL     1     -21.946  -7.991  -1.149  1.00  0.00    -0.056 C 
HETATM   40  C   UNL     1     -22.249  -6.671  -1.284  1.00  0.00     0.017 C 
HETATM   41  C   UNL     1     -22.406  -8.482   0.307  1.00  0.00     0.046 C 
ENDBRANCH   1  39
BRANCH   7  42
HETATM   42  C   UNL     1     -21.448  -7.372  -5.214  1.00  0.00     0.140 C 
BRANCH  42  43
HETATM   43  C   UNL     1     -20.930  -6.362  -6.175  1.00  0.00    -0.051 A 
HETATM   44  C   UNL     1     -19.700  -6.084  -6.744  1.00  0.00     0.007 A 
HETATM   45  C   UNL     1     -19.617  -4.907  -7.543  1.00  0.00     0.001 A 
HETATM   46  C   UNL     1     -20.695  -4.099  -7.760  1.00  0.00     0.000 A 
HETATM   47  C   UNL     1     -21.910  -4.284  -7.094  1.00  0.00     0.001 A 
HETATM   48  C   UNL     1     -21.976  -5.417  -6.298  1.00  0.00     0.007 A 
ENDBRANCH  42  43
ENDBRANCH   7  42
TORSDOF 11
ENDMDL
MODEL 4
REMARK VINA RESULT:     -10.2      2.546      8.888
REMARK  11 active torsions:
REMARK  status: ('A' for Active; 'I' for Inactive)
REMARK    1  A    between atoms: C_2  and  C_4 
REMARK    2  A    between atoms: C_10  and  C_11 
REMARK    3  A    between atoms: C_11  and  C_12 
REMARK    4  A    between atoms: C_22  and  C_23 
REMARK    5  A    between atoms: C_23  and  O_24 
REMARK    6  A    between atoms: O_24  and  C_25 
REMARK    7  A    between atoms: C_25  and  C_27 
REMARK    8  A    between atoms: C_27  and  C_28 
REMARK    9  A    between atoms: C_31  and  O_32 
REMARK   10  A    between atoms: C_33  and  O_34 
REMARK   11  A    between atoms: C_38  and  O_39 
ROOT
HETATM    1  C   UNL     1     -21.339  -9.865  -1.295  1.00  0.00     0.116 C 
HETATM    2  C   UNL     1     -21.571 -11.326  -1.720  1.00  0.00     0.053 C 
HETATM    3  C   UNL     1     -21.628 -11.534  -3.213  1.00  0.00     0.020 C 
HETATM    4  C   UNL     1     -23.006 -11.230  -3.871  1.00  0.00     0.013 C 
HETATM    5  C   UNL     1     -20.492 -10.779  -3.949  1.00  0.00     0.083 C 
HETATM    6  O   UNL     1     -21.026  -9.462  -4.239  1.00  0.00    -0.320 OA
HETATM    7  C   UNL     1     -20.981  -8.490  -3.108  1.00  0.00     0.288 C 
HETATM    8  O   UNL     1     -19.769  -8.258  -2.449  1.00  0.00    -0.323 OA
HETATM    9  C   UNL     1     -19.655  -9.553  -1.875  1.00  0.00     0.173 C 
HETATM   10  C   UNL     1     -19.214 -10.393  -3.198  1.00  0.00     0.054 C 
HETATM   11  C   UNL     1     -18.471  -9.493  -4.335  1.00  0.00     0.017 C 
HETATM   12  C   UNL     1     -17.556  -9.993  -5.179  1.00  0.00     0.014 C 
HETATM   13  C   UNL     1     -18.118 -10.616  -6.447  1.00  0.00     0.053 C 
HETATM   14  C   UNL     1     -18.825 -11.888  -5.998  1.00  0.00     0.125 C 
HETATM   15  C   UNL     1     -19.299 -12.755  -7.151  1.00  0.00     0.165 C 
HETATM   16  O   UNL     1     -18.599 -13.121  -8.087  1.00  0.00    -0.294 OA
HETATM   17  C   UNL     1     -20.660 -13.328  -6.880  1.00  0.00     0.055 C 
HETATM   18  C   UNL     1     -20.460 -14.745  -6.357  1.00  0.00     0.018 C 
HETATM   19  C   UNL     1     -21.171 -12.345  -6.102  1.00  0.00     0.023 C 
HETATM   20  C   UNL     1     -20.113 -11.805  -5.137  1.00  0.00     0.064 C 
HETATM   21  O   UNL     1     -21.892  -8.938  -2.216  1.00  0.00    -0.314 OA
ENDROOT
BRANCH  12  22
HETATM   22  C   UNL     1     -16.281 -10.582  -4.679  1.00  0.00     0.183 C 
BRANCH  22  23
HETATM   23  O   UNL     1     -15.478 -10.951  -5.803  1.00  0.00    -0.321 OA
BRANCH  23  24
HETATM   24  C   UNL     1     -14.849 -12.151  -5.688  1.00  0.00     0.263 C 
HETATM   25  O   UNL     1     -15.187 -13.193  -6.233  1.00  0.00    -0.265 OA
BRANCH  24  26
HETATM   26  C   UNL     1     -13.673 -12.022  -4.765  1.00  0.00     0.149 C 
BRANCH  26  27
HETATM   27  C   UNL     1     -13.798 -12.928  -3.579  1.00  0.00    -0.046 A 
HETATM   28  C   UNL     1     -12.919 -14.005  -3.445  1.00  0.00     0.010 A 
HETATM   29  C   UNL     1     -13.048 -14.905  -2.367  1.00  0.00     0.040 A 
HETATM   30  C   UNL     1     -13.990 -14.646  -1.386  1.00  0.00     0.099 A 
HETATM   31  C   UNL     1     -14.851 -13.523  -1.471  1.00  0.00     0.101 A 
HETATM   32  C   UNL     1     -14.726 -12.652  -2.558  1.00  0.00     0.047 A 
BRANCH  30  33
HETATM   33  O   UNL     1     -14.132 -15.537  -0.358  1.00  0.00    -0.358 OA
HETATM   34  H   UNL     1     -13.750 -15.153   0.445  1.00  0.00     0.217 HD
ENDBRANCH  30  33
BRANCH  31  35
HETATM   35  O   UNL     1     -15.811 -13.168  -0.565  1.00  0.00    -0.353 OA
HETATM   36  C   UNL     1     -16.496 -11.951  -0.835  1.00  0.00     0.210 C 
ENDBRANCH  31  35
ENDBRANCH  26  27
ENDBRANCH  24  26
ENDBRANCH  23  24
ENDBRANCH  22  23
ENDBRANCH  12  22
BRANCH  14  37
HETATM   37  O   UNL     1     -17.877 -12.772  -5.332  1.00  0.00    -0.382 OA
HETATM   38  H   UNL     1     -16.987 -12.413  -5.522  1.00  0.00     0.211 HD
ENDBRANCH  14  37
BRANCH   1  39
HETATM   39  C   UNL     1     -22.760  -9.479  -0.450  1.00  0.00    -0.056 C 
HETATM   40  C   UNL     1     -22.918  -8.433   0.406  1.00  0.00     0.017 C 
HETATM   41  C   UNL     1     -23.868 -10.591  -0.119  1.00  0.00     0.046 C 
ENDBRANCH   1  39
BRANCH   7  42
HETATM   42  C   UNL     1     -21.493  -7.258  -3.709  1.00  0.00     0.140 C 
BRANCH  42  43
HETATM   43  C   UNL     1     -21.273  -6.550  -4.998  1.00  0.00    -0.051 A 
HETATM   44  C   UNL     1     -21.434  -6.866  -6.336  1.00  0.00     0.007 A 
HETATM   45  C   UNL     1     -20.967  -5.906  -7.279  1.00  0.00     0.001 A 
HETATM   46  C   UNL     1     -20.407  -4.722  -6.895  1.00  0.00     0.000 A 
HETATM   47  C   UNL     1     -20.114  -4.436  -5.558  1.00  0.00     0.001 A 
HETATM   48  C   UNL     1     -20.548  -5.387  -4.647  1.00  0.00     0.007 A 
ENDBRANCH  42  43
ENDBRANCH   7  42
TORSDOF 11
ENDMDL
MODEL 5
REMARK VINA RESULT:     -10.2      1.842      3.055
REMARK  11 active torsions:
REMARK  status: ('A' for Active; 'I' for Inactive)
REMARK    1  A    between atoms: C_2  and  C_4 
REMARK    2  A    between atoms: C_10  and  C_11 
REMARK    3  A    between atoms: C_11  and  C_12 
REMARK    4  A    between atoms: C_22  and  C_23 
REMARK    5  A    between atoms: C_23  and  O_24 
REMARK    6  A    between atoms: O_24  and  C_25 
REMARK    7  A    between atoms: C_25  and  C_27 
REMARK    8  A    between atoms: C_27  and  C_28 
REMARK    9  A    between atoms: C_31  and  O_32 
REMARK   10  A    between atoms: C_33  and  O_34 
REMARK   11  A    between atoms: C_38  and  O_39 
ROOT
HETATM    1  C   UNL     1     -19.649 -13.787  -2.182  1.00  0.00     0.116 C 
HETATM    2  C   UNL     1     -20.877 -13.373  -1.352  1.00  0.00     0.053 C 
HETATM    3  C   UNL     1     -20.753 -12.019  -0.698  1.00  0.00     0.020 C 
HETATM    4  C   UNL     1     -19.965 -12.003   0.645  1.00  0.00     0.013 C 
HETATM    5  C   UNL     1     -20.194 -10.952  -1.673  1.00  0.00     0.083 C 
HETATM    6  O   UNL     1     -18.752 -11.013  -1.531  1.00  0.00    -0.320 OA
HETATM    7  C   UNL     1     -18.079 -12.105  -2.292  1.00  0.00     0.288 C 
HETATM    8  O   UNL     1     -18.318 -12.235  -3.664  1.00  0.00    -0.323 OA
HETATM    9  C   UNL     1     -19.685 -12.604  -3.549  1.00  0.00     0.173 C 
HETATM   10  C   UNL     1     -20.324 -11.151  -3.187  1.00  0.00     0.054 C 
HETATM   11  C   UNL     1     -19.442  -9.890  -3.722  1.00  0.00     0.017 C 
HETATM   12  C   UNL     1     -19.985  -8.709  -4.056  1.00  0.00     0.014 C 
HETATM   13  C   UNL     1     -20.163  -7.730  -2.907  1.00  0.00     0.053 C 
HETATM   14  C   UNL     1     -21.265  -8.320  -2.036  1.00  0.00     0.125 C 
HETATM   15  C   UNL     1     -21.719  -7.389  -0.926  1.00  0.00     0.165 C 
HETATM   16  O   UNL     1     -22.060  -6.223  -1.083  1.00  0.00    -0.294 OA
HETATM   17  C   UNL     1     -21.953  -8.139   0.355  1.00  0.00     0.055 C 
HETATM   18  C   UNL     1     -23.447  -8.417   0.452  1.00  0.00     0.018 C 
HETATM   19  C   UNL     1     -21.049  -9.136   0.202  1.00  0.00     0.023 C 
HETATM   20  C   UNL     1     -21.019  -9.632  -1.245  1.00  0.00     0.064 C 
HETATM   21  O   UNL     1     -18.440 -13.249  -1.669  1.00  0.00    -0.314 OA
ENDROOT
BRANCH  12  22
HETATM   22  C   UNL     1     -20.981  -8.599  -5.159  1.00  0.00     0.183 C 
BRANCH  22  23
HETATM   23  O   UNL     1     -20.719  -7.400  -5.892  1.00  0.00    -0.321 OA
BRANCH  23  24
HETATM   24  C   UNL     1     -21.473  -6.329  -5.525  1.00  0.00     0.263 C 
HETATM   25  O   UNL     1     -22.588  -6.375  -5.023  1.00  0.00    -0.265 OA
BRANCH  24  26
HETATM   26  C   UNL     1     -20.743  -5.059  -5.849  1.00  0.00     0.149 C 
BRANCH  26  27
HETATM   27  C   UNL     1     -21.044  -4.585  -7.237  1.00  0.00    -0.046 A 
HETATM   28  C   UNL     1     -20.034  -4.599  -8.200  1.00  0.00     0.010 A 
HETATM   29  C   UNL     1     -20.274  -4.108  -9.500  1.00  0.00     0.040 A 
HETATM   30  C   UNL     1     -21.556  -3.710  -9.839  1.00  0.00     0.099 A 
HETATM   31  C   UNL     1     -22.612  -3.746  -8.894  1.00  0.00     0.101 A 
HETATM   32  C   UNL     1     -22.352  -4.214  -7.603  1.00  0.00     0.047 A 
BRANCH  30  33
HETATM   33  O   UNL     1     -21.779  -3.207 -11.092  1.00  0.00    -0.358 OA
HETATM   34  H   UNL     1     -22.588  -2.674 -11.076  1.00  0.00     0.217 HD
ENDBRANCH  30  33
BRANCH  31  35
HETATM   35  O   UNL     1     -23.911  -3.383  -9.117  1.00  0.00    -0.353 OA
HETATM   36  C   UNL     1     -24.680  -4.288  -9.900  1.00  0.00     0.210 C 
ENDBRANCH  31  35
ENDBRANCH  26  27
ENDBRANCH  24  26
ENDBRANCH  23  24
ENDBRANCH  22  23
ENDBRANCH  12  22
BRANCH  14  37
HETATM   37  O   UNL     1     -22.486  -8.469  -2.817  1.00  0.00    -0.382 OA
HETATM   38  H   UNL     1     -23.035  -7.684  -2.620  1.00  0.00     0.211 HD
ENDBRANCH  14  37
BRANCH   1  39
HETATM   39  C   UNL     1     -19.080 -15.163  -1.368  1.00  0.00    -0.056 C 
HETATM   40  C   UNL     1     -18.111 -16.009  -1.814  1.00  0.00     0.017 C 
HETATM   41  C   UNL     1     -19.983 -15.935  -0.290  1.00  0.00     0.046 C 
ENDBRANCH   1  39
BRANCH   7  42
HETATM   42  C   UNL     1     -16.660 -11.868  -2.029  1.00  0.00     0.140 C 
BRANCH  42  43
HETATM   43  C   UNL     1     -15.404 -12.622  -2.290  1.00  0.00    -0.051 A 
HETATM   44  C   UNL     1     -14.640 -13.536  -1.588  1.00  0.00     0.007 A 
HETATM   45  C   UNL     1     -13.404 -13.924  -2.180  1.00  0.00     0.001 A 
HETATM   46  C   UNL     1     -12.995 -13.441  -3.390  1.00  0.00     0.000 A 
HETATM   47  C   UNL     1     -13.682 -12.422  -4.055  1.00  0.00     0.001 A 
HETATM   48  C   UNL     1     -14.871 -12.031  -3.460  1.00  0.00     0.007 A 
ENDBRANCH  42  43
ENDBRANCH   7  42
TORSDOF 11
ENDMDL
MODEL 6
REMARK VINA RESULT:     -10.1      2.206      3.555
REMARK  11 active torsions:
REMARK  status: ('A' for Active; 'I' for Inactive)
REMARK    1  A    between atoms: C_2  and  C_4 
REMARK    2  A    between atoms: C_10  and  C_11 
REMARK    3  A    between atoms: C_11  and  C_12 
REMARK    4  A    between atoms: C_22  and  C_23 
REMARK    5  A    between atoms: C_23  and  O_24 
REMARK    6  A    between atoms: O_24  and  C_25 
REMARK    7  A    between atoms: C_25  and  C_27 
REMARK    8  A    between atoms: C_27  and  C_28 
REMARK    9  A    between atoms: C_31  and  O_32 
REMARK   10  A    between atoms: C_33  and  O_34 
REMARK   11  A    between atoms: C_38  and  O_39 
ROOT
HETATM    1  C   UNL     1     -16.042 -11.166  -4.961  1.00  0.00     0.116 C 
HETATM    2  C   UNL     1     -17.179 -11.943  -5.649  1.00  0.00     0.053 C 
HETATM    3  C   UNL     1     -18.241 -12.450  -4.705  1.00  0.00     0.020 C 
HETATM    4  C   UNL     1     -17.900 -13.787  -3.984  1.00  0.00     0.013 C 
HETATM    5  C   UNL     1     -18.672 -11.370  -3.681  1.00  0.00     0.083 C 
HETATM    6  O   UNL     1     -17.773 -11.525  -2.553  1.00  0.00    -0.320 OA
HETATM    7  C   UNL     1     -16.435 -10.886  -2.709  1.00  0.00     0.288 C 
HETATM    8  O   UNL     1     -16.355  -9.534  -3.060  1.00  0.00    -0.323 OA
HETATM    9  C   UNL     1     -16.888  -9.682  -4.368  1.00  0.00     0.173 C 
HETATM   10  C   UNL     1     -18.459  -9.886  -3.994  1.00  0.00     0.054 C 
HETATM   11  C   UNL     1     -18.891  -9.224  -2.569  1.00  0.00     0.017 C 
HETATM   12  C   UNL     1     -20.127  -8.765  -2.322  1.00  0.00     0.014 C 
HETATM   13  C   UNL     1     -21.114  -9.804  -1.813  1.00  0.00     0.053 C 
HETATM   14  C   UNL     1     -21.378 -10.728  -2.995  1.00  0.00     0.125 C 
HETATM   15  C   UNL     1     -22.489 -11.731  -2.740  1.00  0.00     0.165 C 
HETATM   16  O   UNL     1     -23.607 -11.450  -2.329  1.00  0.00    -0.294 OA
HETATM   17  C   UNL     1     -22.142 -13.083  -3.296  1.00  0.00     0.055 C 
HETATM   18  C   UNL     1     -22.822 -13.203  -4.654  1.00  0.00     0.018 C 
HETATM   19  C   UNL     1     -20.794 -13.040  -3.174  1.00  0.00     0.023 C 
HETATM   20  C   UNL     1     -20.255 -11.654  -3.531  1.00  0.00     0.064 C 
HETATM   21  O   UNL     1     -15.794 -11.624  -3.642  1.00  0.00    -0.314 OA
ENDROOT
BRANCH  12  22
HETATM   22  C   UNL     1     -20.714  -7.652  -3.121  1.00  0.00     0.183 C 
BRANCH  22  23
HETATM   23  O   UNL     1     -19.985  -7.538  -4.346  1.00  0.00    -0.321 OA
BRANCH  23  24
HETATM   24  C   UNL     1     -20.715  -7.103  -5.408  1.00  0.00     0.263 C 
HETATM   25  O   UNL     1     -21.283  -7.813  -6.227  1.00  0.00    -0.265 OA
BRANCH  24  26
HETATM   26  C   UNL     1     -20.710  -5.603  -5.448  1.00  0.00     0.149 C 
BRANCH  26  27
HETATM   27  C   UNL     1     -20.987  -5.084  -6.826  1.00  0.00    -0.046 A 
HETATM   28  C   UNL     1     -19.966  -5.090  -7.777  1.00  0.00     0.010 A 
HETATM   29  C   UNL     1     -20.183  -4.558  -9.065  1.00  0.00     0.040 A 
HETATM   30  C   UNL     1     -21.453  -4.127  -9.407  1.00  0.00     0.099 A 
HETATM   31  C   UNL     1     -22.520  -4.170  -8.474  1.00  0.00     0.101 A 
HETATM   32  C   UNL     1     -22.283  -4.679  -7.194  1.00  0.00     0.047 A 
BRANCH  30  33
HETATM   33  O   UNL     1     -21.653  -3.585 -10.647  1.00  0.00    -0.358 OA
HETATM   34  H   UNL     1     -22.603  -3.584 -10.839  1.00  0.00     0.217 HD
ENDBRANCH  30  33
BRANCH  31  35
HETATM   35  O   UNL     1     -23.810  -3.777  -8.701  1.00  0.00    -0.353 OA
HETATM   36  C   UNL     1     -24.434  -4.337  -9.850  1.00  0.00     0.210 C 
ENDBRANCH  31  35
ENDBRANCH  26  27
ENDBRANCH  24  26
ENDBRANCH  23  24
ENDBRANCH  22  23
ENDBRANCH  12  22
BRANCH  14  37
HETATM   37  O   UNL     1     -21.921  -9.962  -4.110  1.00  0.00    -0.382 OA
HETATM   38  H   UNL     1     -22.161  -9.084  -3.749  1.00  0.00     0.211 HD
ENDBRANCH  14  37
BRANCH   1  39
HETATM   39  C   UNL     1     -14.677 -12.124  -5.275  1.00  0.00    -0.056 C 
HETATM   40  C   UNL     1     -13.673 -12.391  -4.395  1.00  0.00     0.017 C 
HETATM   41  C   UNL     1     -14.129 -12.343  -6.767  1.00  0.00     0.046 C 
ENDBRANCH   1  39
BRANCH   7  42
HETATM   42  C   UNL     1     -15.799 -11.129  -1.414  1.00  0.00     0.140 C 
BRANCH  42  43
HETATM   43  C   UNL     1     -15.537 -12.335  -0.584  1.00  0.00    -0.051 A 
HETATM   44  C   UNL     1     -15.195 -13.651  -0.838  1.00  0.00     0.007 A 
HETATM   45  C   UNL     1     -15.167 -14.532   0.281  1.00  0.00     0.001 A 
HETATM   46  C   UNL     1     -15.442 -14.105   1.548  1.00  0.00     0.000 A 
HETATM   47  C   UNL     1     -15.916 -12.817   1.814  1.00  0.00     0.001 A 
HETATM   48  C   UNL     1     -15.965 -11.973   0.716  1.00  0.00     0.007 A 
ENDBRANCH  42  43
ENDBRANCH   7  42
TORSDOF 11
ENDMDL
MODEL 7
REMARK VINA RESULT:      -9.8      2.660      8.315
REMARK  11 active torsions:
REMARK  status: ('A' for Active; 'I' for Inactive)
REMARK    1  A    between atoms: C_2  and  C_4 
REMARK    2  A    between atoms: C_10  and  C_11 
REMARK    3  A    between atoms: C_11  and  C_12 
REMARK    4  A    between atoms: C_22  and  C_23 
REMARK    5  A    between atoms: C_23  and  O_24 
REMARK    6  A    between atoms: O_24  and  C_25 
REMARK    7  A    between atoms: C_25  and  C_27 
REMARK    8  A    between atoms: C_27  and  C_28 
REMARK    9  A    between atoms: C_31  and  O_32 
REMARK   10  A    between atoms: C_33  and  O_34 
REMARK   11  A    between atoms: C_38  and  O_39 
ROOT
HETATM    1  C   UNL     1     -20.695  -9.390  -1.407  1.00  0.00     0.116 C 
HETATM    2  C   UNL     1     -21.195 -10.814  -1.106  1.00  0.00     0.053 C 
HETATM    3  C   UNL     1     -21.901 -11.479  -2.262  1.00  0.00     0.020 C 
HETATM    4  C   UNL     1     -23.401 -11.096  -2.429  1.00  0.00     0.013 C 
HETATM    5  C   UNL     1     -21.136 -11.289  -3.596  1.00  0.00     0.083 C 
HETATM    6  O   UNL     1     -21.642 -10.053  -4.162  1.00  0.00    -0.320 OA
HETATM    7  C   UNL     1     -21.045  -8.804  -3.607  1.00  0.00     0.288 C 
HETATM    8  O   UNL     1     -19.654  -8.657  -3.587  1.00  0.00    -0.323 OA
HETATM    9  C   UNL     1     -19.403  -9.683  -2.638  1.00  0.00     0.173 C 
HETATM   10  C   UNL     1     -19.634 -10.986  -3.584  1.00  0.00     0.054 C 
HETATM   11  C   UNL     1     -19.383 -10.704  -5.169  1.00  0.00     0.017 C 
HETATM   12  C   UNL     1     -18.958 -11.650  -6.021  1.00  0.00     0.014 C 
HETATM   13  C   UNL     1     -20.053 -12.505  -6.639  1.00  0.00     0.053 C 
HETATM   14  C   UNL     1     -20.594 -13.360  -5.500  1.00  0.00     0.125 C 
HETATM   15  C   UNL     1     -21.578 -14.421  -5.958  1.00  0.00     0.165 C 
HETATM   16  O   UNL     1     -21.376 -15.224  -6.860  1.00  0.00    -0.294 OA
HETATM   17  C   UNL     1     -22.732 -14.544  -5.003  1.00  0.00     0.055 C 
HETATM   18  C   UNL     1     -22.434 -15.717  -4.080  1.00  0.00     0.018 C 
HETATM   19  C   UNL     1     -22.785 -13.271  -4.546  1.00  0.00     0.023 C 
HETATM   20  C   UNL     1     -21.380 -12.705  -4.334  1.00  0.00     0.064 C 
HETATM   21  O   UNL     1     -21.517  -8.713  -2.344  1.00  0.00    -0.314 OA
ENDROOT
BRANCH  12  22
HETATM   22  C   UNL     1     -17.640 -12.321  -5.837  1.00  0.00     0.183 C 
BRANCH  22  23
HETATM   23  O   UNL     1     -16.677 -11.670  -6.669  1.00  0.00    -0.321 OA
BRANCH  23  24
HETATM   24  C   UNL     1     -15.841 -10.818  -6.017  1.00  0.00     0.263 C 
HETATM   25  O   UNL     1     -15.888  -9.596  -6.057  1.00  0.00    -0.265 OA
BRANCH  24  26
HETATM   26  C   UNL     1     -14.819 -11.600  -5.244  1.00  0.00     0.149 C 
BRANCH  26  27
HETATM   27  C   UNL     1     -15.142 -11.641  -3.782  1.00  0.00    -0.046 A 
HETATM   28  C   UNL     1     -15.729 -10.527  -3.180  1.00  0.00     0.010 A 
HETATM   29  C   UNL     1     -15.993 -10.517  -1.794  1.00  0.00     0.040 A 
HETATM   30  C   UNL     1     -15.761 -11.667  -1.060  1.00  0.00     0.099 A 
HETATM   31  C   UNL     1     -15.223 -12.831  -1.665  1.00  0.00     0.101 A 
HETATM   32  C   UNL     1     -14.945 -12.817  -3.035  1.00  0.00     0.047 A 
BRANCH  30  33
HETATM   33  O   UNL     1     -15.991 -11.645   0.289  1.00  0.00    -0.358 OA
HETATM   34  H   UNL     1     -16.906 -11.916   0.456  1.00  0.00     0.217 HD
ENDBRANCH  30  33
BRANCH  31  35
HETATM   35  O   UNL     1     -14.957 -14.019  -1.042  1.00  0.00    -0.353 OA
HETATM   36  C   UNL     1     -15.901 -15.059  -1.266  1.00  0.00     0.210 C 
ENDBRANCH  31  35
ENDBRANCH  26  27
ENDBRANCH  24  26
ENDBRANCH  23  24
ENDBRANCH  22  23
ENDBRANCH  12  22
BRANCH  14  37
HETATM   37  O   UNL     1     -19.521 -14.172  -4.940  1.00  0.00    -0.382 OA
HETATM   38  H   UNL     1     -18.707 -13.921  -5.421  1.00  0.00     0.211 HD
ENDBRANCH  14  37
BRANCH   1  39
HETATM   39  C   UNL     1     -21.585  -8.433  -0.324  1.00  0.00    -0.056 C 
HETATM   40  C   UNL     1     -22.226  -7.272  -0.629  1.00  0.00     0.017 C 
HETATM   41  C   UNL     1     -21.304  -8.468   1.255  1.00  0.00     0.046 C 
ENDBRANCH   1  39
BRANCH   7  42
HETATM   42  C   UNL     1     -21.671  -7.753  -4.409  1.00  0.00     0.140 C 
BRANCH  42  43
HETATM   43  C   UNL     1     -21.189  -6.790  -5.435  1.00  0.00    -0.051 A 
HETATM   44  C   UNL     1     -20.909  -6.851  -6.789  1.00  0.00     0.007 A 
HETATM   45  C   UNL     1     -20.330  -5.689  -7.375  1.00  0.00     0.001 A 
HETATM   46  C   UNL     1     -20.079  -4.559  -6.651  1.00  0.00     0.000 A 
HETATM   47  C   UNL     1     -20.230  -4.515  -5.262  1.00  0.00     0.001 A 
HETATM   48  C   UNL     1     -20.770  -5.659  -4.695  1.00  0.00     0.007 A 
ENDBRANCH  42  43
ENDBRANCH   7  42
TORSDOF 11
ENDMDL
MODEL 8
REMARK VINA RESULT:      -9.8      2.525      8.913
REMARK  11 active torsions:
REMARK  status: ('A' for Active; 'I' for Inactive)
REMARK    1  A    between atoms: C_2  and  C_4 
REMARK    2  A    between atoms: C_10  and  C_11 
REMARK    3  A    between atoms: C_11  and  C_12 
REMARK    4  A    between atoms: C_22  and  C_23 
REMARK    5  A    between atoms: C_23  and  O_24 
REMARK    6  A    between atoms: O_24  and  C_25 
REMARK    7  A    between atoms: C_25  and  C_27 
REMARK    8  A    between atoms: C_27  and  C_28 
REMARK    9  A    between atoms: C_31  and  O_32 
REMARK   10  A    between atoms: C_33  and  O_34 
REMARK   11  A    between atoms: C_38  and  O_39 
ROOT
HETATM    1  C   UNL     1     -21.420  -9.931  -1.302  1.00  0.00     0.116 C 
HETATM    2  C   UNL     1     -21.610 -11.355  -1.856  1.00  0.00     0.053 C 
HETATM    3  C   UNL     1     -21.645 -11.432  -3.362  1.00  0.00     0.020 C 
HETATM    4  C   UNL     1     -23.023 -11.106  -4.009  1.00  0.00     0.013 C 
HETATM    5  C   UNL     1     -20.521 -10.588  -4.015  1.00  0.00     0.083 C 
HETATM    6  O   UNL     1     -21.085  -9.264  -4.195  1.00  0.00    -0.320 OA
HETATM    7  C   UNL     1     -21.076  -8.395  -2.984  1.00  0.00     0.288 C 
HETATM    8  O   UNL     1     -19.878  -8.192  -2.291  1.00  0.00    -0.323 OA
HETATM    9  C   UNL     1     -19.738  -9.528  -1.831  1.00  0.00     0.173 C 
HETATM   10  C   UNL     1     -19.261 -10.238  -3.216  1.00  0.00     0.054 C 
HETATM   11  C   UNL     1     -18.528  -9.225  -4.260  1.00  0.00     0.017 C 
HETATM   12  C   UNL     1     -17.592  -9.627  -5.133  1.00  0.00     0.014 C 
HETATM   13  C   UNL     1     -18.124 -10.150  -6.458  1.00  0.00     0.053 C 
HETATM   14  C   UNL     1     -18.804 -11.473  -6.131  1.00  0.00     0.125 C 
HETATM   15  C   UNL     1     -19.242 -12.247  -7.361  1.00  0.00     0.165 C 
HETATM   16  O   UNL     1     -18.523 -12.512  -8.316  1.00  0.00    -0.294 OA
HETATM   17  C   UNL     1     -20.592 -12.875  -7.158  1.00  0.00     0.055 C 
HETATM   18  C   UNL     1     -20.362 -14.326  -6.758  1.00  0.00     0.018 C 
HETATM   19  C   UNL     1     -21.136 -11.976  -6.305  1.00  0.00     0.023 C 
HETATM   20  C   UNL     1     -20.103 -11.497  -5.282  1.00  0.00     0.064 C 
HETATM   21  O   UNL     1     -21.986  -8.941  -2.146  1.00  0.00    -0.314 OA
ENDROOT
BRANCH  12  22
HETATM   22  C   UNL     1     -16.308 -10.226  -4.670  1.00  0.00     0.183 C 
BRANCH  22  23
HETATM   23  O   UNL     1     -16.465 -10.647  -3.313  1.00  0.00    -0.321 OA
BRANCH  23  24
HETATM   24  C   UNL     1     -16.059 -11.920  -3.058  1.00  0.00     0.263 C 
HETATM   25  O   UNL     1     -16.790 -12.878  -2.848  1.00  0.00    -0.265 OA
BRANCH  24  26
HETATM   26  C   UNL     1     -14.560 -11.982  -3.050  1.00  0.00     0.149 C 
BRANCH  26  27
HETATM   27  C   UNL     1     -14.042 -13.008  -4.011  1.00  0.00    -0.046 A 
HETATM   28  C   UNL     1     -13.783 -12.639  -5.331  1.00  0.00     0.010 A 
HETATM   29  C   UNL     1     -13.348 -13.597  -6.271  1.00  0.00     0.040 A 
HETATM   30  C   UNL     1     -13.077 -14.884  -5.840  1.00  0.00     0.099 A 
HETATM   31  C   UNL     1     -13.274 -15.264  -4.488  1.00  0.00     0.101 A 
HETATM   32  C   UNL     1     -13.729 -14.309  -3.574  1.00  0.00     0.047 A 
BRANCH  30  33
HETATM   33  O   UNL     1     -12.683 -15.817  -6.759  1.00  0.00    -0.358 OA
HETATM   34  H   UNL     1     -13.081 -16.671  -6.530  1.00  0.00     0.217 HD
ENDBRANCH  30  33
BRANCH  31  35
HETATM   35  O   UNL     1     -13.039 -16.499  -3.951  1.00  0.00    -0.353 OA
HETATM   36  C   UNL     1     -14.101 -17.051  -3.182  1.00  0.00     0.210 C 
ENDBRANCH  31  35
ENDBRANCH  26  27
ENDBRANCH  24  26
ENDBRANCH  23  24
ENDBRANCH  22  23
ENDBRANCH  12  22
BRANCH  14  37
HETATM   37  O   UNL     1     -17.841 -12.389  -5.532  1.00  0.00    -0.382 OA
HETATM   38  H   UNL     1     -17.020 -11.873  -5.396  1.00  0.00     0.211 HD
ENDBRANCH  14  37
BRANCH   1  39
HETATM   39  C   UNL     1     -22.859  -9.656  -0.446  1.00  0.00    -0.056 C 
HETATM   40  C   UNL     1     -23.066  -8.667   0.466  1.00  0.00     0.017 C 
HETATM   41  C   UNL     1     -23.918 -10.832  -0.183  1.00  0.00     0.046 C 
ENDBRANCH   1  39
BRANCH   7  42
HETATM   42  C   UNL     1     -21.614  -7.127  -3.481  1.00  0.00     0.140 C 
BRANCH  42  43
HETATM   43  C   UNL     1     -21.487  -6.361  -4.750  1.00  0.00    -0.051 A 
HETATM   44  C   UNL     1     -21.974  -6.499  -6.037  1.00  0.00     0.007 A 
HETATM   45  C   UNL     1     -21.486  -5.577  -7.007  1.00  0.00     0.001 A 
HETATM   46  C   UNL     1     -20.598  -4.590  -6.689  1.00  0.00     0.000 A 
HETATM   47  C   UNL     1     -19.992  -4.510  -5.432  1.00  0.00     0.001 A 
HETATM   48  C   UNL     1     -20.454  -5.427  -4.500  1.00  0.00     0.007 A 
ENDBRANCH  42  43
ENDBRANCH   7  42
TORSDOF 11
ENDMDL
MODEL 9
REMARK VINA RESULT:      -9.8      2.605      5.186
REMARK  11 active torsions:
REMARK  status: ('A' for Active; 'I' for Inactive)
REMARK    1  A    between atoms: C_2  and  C_4 
REMARK    2  A    between atoms: C_10  and  C_11 
REMARK    3  A    between atoms: C_11  and  C_12 
REMARK    4  A    between atoms: C_22  and  C_23 
REMARK    5  A    between atoms: C_23  and  O_24 
REMARK    6  A    between atoms: O_24  and  C_25 
REMARK    7  A    between atoms: C_25  and  C_27 
REMARK    8  A    between atoms: C_27  and  C_28 
REMARK    9  A    between atoms: C_31  and  O_32 
REMARK   10  A    between atoms: C_33  and  O_34 
REMARK   11  A    between atoms: C_38  and  O_39 
ROOT
HETATM    1  C   UNL     1     -15.027 -12.603  -2.762  1.00  0.00     0.116 C 
HETATM    2  C   UNL     1     -15.245 -13.009  -4.231  1.00  0.00     0.053 C 
HETATM    3  C   UNL     1     -16.662 -13.409  -4.558  1.00  0.00     0.020 C 
HETATM    4  C   UNL     1     -17.033 -14.879  -4.203  1.00  0.00     0.013 C 
HETATM    5  C   UNL     1     -17.698 -12.424  -3.959  1.00  0.00     0.083 C 
HETATM    6  O   UNL     1     -17.994 -12.930  -2.633  1.00  0.00    -0.320 OA
HETATM    7  C   UNL     1     -17.003 -12.578  -1.577  1.00  0.00     0.288 C 
HETATM    8  O   UNL     1     -16.647 -11.238  -1.387  1.00  0.00    -0.323 OA
HETATM    9  C   UNL     1     -15.986 -11.075  -2.634  1.00  0.00     0.173 C 
HETATM   10  C   UNL     1     -17.283 -10.990  -3.614  1.00  0.00     0.054 C 
HETATM   11  C   UNL     1     -18.637 -10.467  -2.874  1.00  0.00     0.017 C 
HETATM   12  C   UNL     1     -19.606  -9.794  -3.514  1.00  0.00     0.014 C 
HETATM   13  C   UNL     1     -20.654 -10.660  -4.195  1.00  0.00     0.053 C 
HETATM   14  C   UNL     1     -19.938 -11.322  -5.365  1.00  0.00     0.125 C 
HETATM   15  C   UNL     1     -20.870 -12.090  -6.285  1.00  0.00     0.165 C 
HETATM   16  O   UNL     1     -21.894 -11.639  -6.783  1.00  0.00    -0.294 OA
HETATM   17  C   UNL     1     -20.255 -13.389  -6.725  1.00  0.00     0.055 C 
HETATM   18  C   UNL     1     -19.649 -13.160  -8.104  1.00  0.00     0.018 C 
HETATM   19  C   UNL     1     -19.486 -13.655  -5.643  1.00  0.00     0.023 C 
HETATM   20  C   UNL     1     -18.831 -12.379  -5.108  1.00  0.00     0.064 C 
HETATM   21  O   UNL     1     -15.895 -13.292  -1.875  1.00  0.00    -0.314 OA
ENDROOT
BRANCH  12  22
HETATM   22  C   UNL     1     -19.338  -8.477  -4.158  1.00  0.00     0.183 C 
BRANCH  22  23
HETATM   23  O   UNL     1     -20.542  -7.706  -4.138  1.00  0.00    -0.321 OA
BRANCH  23  24
HETATM   24  C   UNL     1     -20.926  -7.213  -5.345  1.00  0.00     0.263 C 
HETATM   25  O   UNL     1     -21.245  -7.876  -6.323  1.00  0.00    -0.265 OA
BRANCH  24  26
HETATM   26  C   UNL     1     -20.882  -5.713  -5.319  1.00  0.00     0.149 C 
BRANCH  26  27
HETATM   27  C   UNL     1     -21.002  -5.131  -6.694  1.00  0.00    -0.046 A 
HETATM   28  C   UNL     1     -19.875  -5.077  -7.515  1.00  0.00     0.010 A 
HETATM   29  C   UNL     1     -19.947  -4.484  -8.793  1.00  0.00     0.040 A 
HETATM   30  C   UNL     1     -21.175  -4.053  -9.264  1.00  0.00     0.099 A 
HETATM   31  C   UNL     1     -22.344  -4.156  -8.469  1.00  0.00     0.101 A 
HETATM   32  C   UNL     1     -22.252  -4.724  -7.195  1.00  0.00     0.047 A 
BRANCH  30  33
HETATM   33  O   UNL     1     -21.235  -3.452 -10.491  1.00  0.00    -0.358 OA
HETATM   34  H   UNL     1     -20.899  -4.069 -11.159  1.00  0.00     0.217 HD
ENDBRANCH  30  33
BRANCH  31  35
HETATM   35  O   UNL     1     -23.605  -3.767  -8.830  1.00  0.00    -0.353 OA
HETATM   36  C   UNL     1     -24.215  -4.532  -9.863  1.00  0.00     0.210 C 
ENDBRANCH  31  35
ENDBRANCH  26  27
ENDBRANCH  24  26
ENDBRANCH  23  24
ENDBRANCH  22  23
ENDBRANCH  12  22
BRANCH  14  37
HETATM   37  O   UNL     1     -19.409 -10.303  -6.262  1.00  0.00    -0.382 OA
HETATM   38  H   UNL     1     -20.140  -9.673  -6.424  1.00  0.00     0.211 HD
ENDBRANCH  14  37
BRANCH   1  39
HETATM   39  C   UNL     1     -13.938 -13.775  -2.196  1.00  0.00    -0.056 C 
HETATM   40  C   UNL     1     -13.629 -14.011  -0.892  1.00  0.00     0.017 C 
HETATM   41  C   UNL     1     -12.749 -14.331  -3.118  1.00  0.00     0.046 C 
ENDBRANCH   1  39
BRANCH   7  42
HETATM   42  C   UNL     1     -17.597 -13.138  -0.363  1.00  0.00     0.140 C 
BRANCH  42  43
HETATM   43  C   UNL     1     -17.092 -13.959   0.769  1.00  0.00    -0.051 A 
HETATM   44  C   UNL     1     -17.409 -15.192   1.311  1.00  0.00     0.007 A 
HETATM   45  C   UNL     1     -16.735 -15.555   2.512  1.00  0.00     0.001 A 
HETATM   46  C   UNL     1     -15.806 -14.744   3.097  1.00  0.00     0.000 A 
HETATM   47  C   UNL     1     -15.563 -13.443   2.646  1.00  0.00     0.001 A 
HETATM   48  C   UNL     1     -16.242 -13.088   1.490  1.00  0.00     0.007 A 
ENDBRANCH  42  43
ENDBRANCH   7  42
TORSDOF 11
ENDMDL
