MODEL 1
REMARK VINA RESULT:      -7.0      0.000      0.000
REMARK  16 active torsions:
REMARK  status: ('A' for Active; 'I' for Inactive)
REMARK    1  A    between atoms: C_2  and  C_3 
REMARK    2  A    between atoms: C_3  and  C_4 
REMARK    3  A    between atoms: C_4  and  C_5 
REMARK    4  A    between atoms: C_5  and  C_6 
REMARK    5  A    between atoms: C_7  and  C_8 
REMARK    6  A    between atoms: C_8  and  C_9 
REMARK    7  A    between atoms: C_10  and  C_11 
REMARK    8  A    between atoms: C_11  and  C_12 
REMARK    9  A    between atoms: C_13  and  C_14 
REMARK   10  A    between atoms: C_15  and  C_16 
REMARK   11  A    between atoms: C_16  and  O_17 
REMARK   12  A    between atoms: C_16  and  C_18 
REMARK   13  A    between atoms: C_18  and  C_19 
REMARK   14  A    between atoms: C_19  and  C_20 
REMARK   15  A    between atoms: C_20  and  C_21 
REMARK   16  A    between atoms: C_21  and  O_23 
ROOT
HETATM    1  C   UNL     1     -20.097  -7.740  -5.279  1.00  0.00    -0.023 C 
HETATM    2  C   UNL     1     -20.963  -6.732  -5.090  1.00  0.00    -0.004 C 
ENDROOT
BRANCH   2   3
HETATM    3  C   UNL     1     -21.242  -5.746  -6.100  1.00  0.00    -0.002 C 
HETATM    4  C   UNL     1     -20.387  -4.761  -6.414  1.00  0.00     0.004 C 
BRANCH   4   5
HETATM    5  C   UNL     1     -20.655  -3.763  -7.502  1.00  0.00     0.141 C 
BRANCH   5   6
HETATM    6  O   UNL     1     -19.830  -4.082  -8.617  1.00  0.00    -0.392 OA
HETATM    7  H   UNL     1     -19.756  -3.289  -9.172  1.00  0.00     0.210 HD
ENDBRANCH   5   6
BRANCH   5   8
HETATM    8  C   UNL     1     -22.123  -3.763  -7.951  1.00  0.00     0.036 C 
BRANCH   8   9
HETATM    9  C   UNL     1     -22.260  -3.855  -9.473  1.00  0.00     0.013 C 
BRANCH   9  10
HETATM   10  C   UNL     1     -23.549  -4.549  -9.904  1.00  0.00     0.110 C 
BRANCH  10  11
HETATM   11  C   UNL     1     -24.540  -3.551 -10.460  1.00  0.00     0.139 C 
HETATM   12  O   UNL     1     -25.506  -3.106  -9.863  1.00  0.00    -0.650 OA
BRANCH  11  13
HETATM   13  O   UNL     1     -24.244  -3.183 -11.728  1.00  0.00    -0.776 OA
HETATM   14  H   UNL     1     -23.933  -2.264 -11.810  1.00  0.00     0.167 HD
ENDBRANCH  11  13
ENDBRANCH  10  11
ENDBRANCH   9  10
ENDBRANCH   8   9
ENDBRANCH   5   8
ENDBRANCH   4   5
ENDBRANCH   2   3
BRANCH   1  15
HETATM   15  C   UNL     1     -19.824  -8.788  -4.244  1.00  0.00     0.054 C 
BRANCH  15  16
HETATM   16  C   UNL     1     -21.076  -9.514  -3.854  1.00  0.00    -0.027 C 
HETATM   17  C   UNL     1     -21.258 -10.832  -4.033  1.00  0.00    -0.027 C 
BRANCH  17  18
HETATM   18  C   UNL     1     -22.526 -11.546  -3.675  1.00  0.00     0.053 C 
BRANCH  18  19
HETATM   19  C   UNL     1     -23.230 -10.869  -2.540  1.00  0.00    -0.027 C 
HETATM   20  C   UNL     1     -22.865 -11.004  -1.257  1.00  0.00    -0.030 C 
BRANCH  20  21
HETATM   21  C   UNL     1     -23.583 -10.336  -0.124  1.00  0.00     0.027 C 
BRANCH  21  22
HETATM   22  C   UNL     1     -22.709  -9.268   0.528  1.00  0.00     0.004 C 
BRANCH  22  23
HETATM   23  C   UNL     1     -23.002  -7.893  -0.071  1.00  0.00    -0.000 C 
BRANCH  23  24
HETATM   24  C   UNL     1     -21.817  -7.380  -0.884  1.00  0.00    -0.005 C 
HETATM   25  C   UNL     1     -22.235  -6.252  -1.810  1.00  0.00     0.005 C 
ENDBRANCH  23  24
ENDBRANCH  22  23
ENDBRANCH  21  22
ENDBRANCH  20  21
ENDBRANCH  18  19
ENDBRANCH  17  18
ENDBRANCH  15  16
ENDBRANCH   1  15
TORSDOF 16
ENDMDL
MODEL 2
REMARK VINA RESULT:      -6.8      1.685      3.802
REMARK  16 active torsions:
REMARK  status: ('A' for Active; 'I' for Inactive)
REMARK    1  A    between atoms: C_2  and  C_3 
REMARK    2  A    between atoms: C_3  and  C_4 
REMARK    3  A    between atoms: C_4  and  C_5 
REMARK    4  A    between atoms: C_5  and  C_6 
REMARK    5  A    between atoms: C_7  and  C_8 
REMARK    6  A    between atoms: C_8  and  C_9 
REMARK    7  A    between atoms: C_10  and  C_11 
REMARK    8  A    between atoms: C_11  and  C_12 
REMARK    9  A    between atoms: C_13  and  C_14 
REMARK   10  A    between atoms: C_15  and  C_16 
REMARK   11  A    between atoms: C_16  and  O_17 
REMARK   12  A    between atoms: C_16  and  C_18 
REMARK   13  A    between atoms: C_18  and  C_19 
REMARK   14  A    between atoms: C_19  and  C_20 
REMARK   15  A    between atoms: C_20  and  C_21 
REMARK   16  A    between atoms: C_21  and  O_23 
ROOT
HETATM    1  C   UNL     1     -22.336  -7.013  -0.882  1.00  0.00    -0.023 C 
HETATM    2  C   UNL     1     -21.538  -7.140  -1.953  1.00  0.00    -0.004 C 
ENDROOT
BRANCH   2   3
HETATM    3  C   UNL     1     -21.755  -6.413  -3.177  1.00  0.00    -0.002 C 
HETATM    4  C   UNL     1     -21.198  -6.770  -4.345  1.00  0.00     0.004 C 
BRANCH   4   5
HETATM    5  C   UNL     1     -21.465  -6.044  -5.631  1.00  0.00     0.141 C 
BRANCH   5   6
HETATM    6  O   UNL     1     -22.811  -5.582  -5.616  1.00  0.00    -0.392 OA
HETATM    7  H   UNL     1     -23.023  -5.310  -4.708  1.00  0.00     0.210 HD
ENDBRANCH   5   6
BRANCH   5   8
HETATM    8  C   UNL     1     -20.528  -4.844  -5.834  1.00  0.00     0.036 C 
BRANCH   8   9
HETATM    9  C   UNL     1     -21.012  -3.920  -6.954  1.00  0.00     0.013 C 
BRANCH   9  10
HETATM   10  C   UNL     1     -21.088  -4.626  -8.305  1.00  0.00     0.110 C 
BRANCH  10  11
HETATM   11  C   UNL     1     -22.466  -4.481  -8.912  1.00  0.00     0.139 C 
HETATM   12  O   UNL     1     -23.486  -4.219  -8.298  1.00  0.00    -0.650 OA
BRANCH  11  13
HETATM   13  O   UNL     1     -22.461  -4.677 -10.252  1.00  0.00    -0.776 OA
HETATM   14  H   UNL     1     -23.221  -4.279 -10.711  1.00  0.00     0.167 HD
ENDBRANCH  11  13
ENDBRANCH  10  11
ENDBRANCH   9  10
ENDBRANCH   8   9
ENDBRANCH   5   8
ENDBRANCH   4   5
ENDBRANCH   2   3
BRANCH   1  15
HETATM   15  C   UNL     1     -22.099  -7.741   0.405  1.00  0.00     0.054 C 
BRANCH  15  16
HETATM   16  C   UNL     1     -22.354  -9.210   0.260  1.00  0.00    -0.027 C 
HETATM   17  C   UNL     1     -23.546  -9.730  -0.072  1.00  0.00    -0.027 C 
BRANCH  17  18
HETATM   18  C   UNL     1     -23.804 -11.203  -0.179  1.00  0.00     0.053 C 
BRANCH  18  19
HETATM   19  C   UNL     1     -23.233 -11.763  -1.445  1.00  0.00    -0.027 C 
HETATM   20  C   UNL     1     -23.079 -11.048  -2.569  1.00  0.00    -0.030 C 
BRANCH  20  21
HETATM   21  C   UNL     1     -22.522 -11.620  -3.837  1.00  0.00     0.027 C 
BRANCH  21  22
HETATM   22  C   UNL     1     -20.996 -11.595  -3.827  1.00  0.00     0.004 C 
BRANCH  22  23
HETATM   23  C   UNL     1     -20.482 -10.232  -3.366  1.00  0.00    -0.000 C 
BRANCH  23  24
HETATM   24  C   UNL     1     -19.243 -10.377  -2.487  1.00  0.00    -0.005 C 
HETATM   25  C   UNL     1     -19.576 -11.077  -1.181  1.00  0.00     0.005 C 
ENDBRANCH  23  24
ENDBRANCH  22  23
ENDBRANCH  21  22
ENDBRANCH  20  21
ENDBRANCH  18  19
ENDBRANCH  17  18
ENDBRANCH  15  16
ENDBRANCH   1  15
TORSDOF 16
ENDMDL
MODEL 3
REMARK VINA RESULT:      -6.8     12.601     16.140
REMARK  16 active torsions:
REMARK  status: ('A' for Active; 'I' for Inactive)
REMARK    1  A    between atoms: C_2  and  C_3 
REMARK    2  A    between atoms: C_3  and  C_4 
REMARK    3  A    between atoms: C_4  and  C_5 
REMARK    4  A    between atoms: C_5  and  C_6 
REMARK    5  A    between atoms: C_7  and  C_8 
REMARK    6  A    between atoms: C_8  and  C_9 
REMARK    7  A    between atoms: C_10  and  C_11 
REMARK    8  A    between atoms: C_11  and  C_12 
REMARK    9  A    between atoms: C_13  and  C_14 
REMARK   10  A    between atoms: C_15  and  C_16 
REMARK   11  A    between atoms: C_16  and  O_17 
REMARK   12  A    between atoms: C_16  and  C_18 
REMARK   13  A    between atoms: C_18  and  C_19 
REMARK   14  A    between atoms: C_19  and  C_20 
REMARK   15  A    between atoms: C_20  and  C_21 
REMARK   16  A    between atoms: C_21  and  O_23 
ROOT
HETATM    1  C   UNL     1     -35.034  -2.382 -16.480  1.00  0.00    -0.023 C 
HETATM    2  C   UNL     1     -33.922  -2.812 -17.095  1.00  0.00    -0.004 C 
ENDROOT
BRANCH   2   3
HETATM    3  C   UNL     1     -33.252  -4.033 -16.730  1.00  0.00    -0.002 C 
HETATM    4  C   UNL     1     -32.053  -4.381 -17.220  1.00  0.00     0.004 C 
BRANCH   4   5
HETATM    5  C   UNL     1     -31.331  -5.629 -16.801  1.00  0.00     0.141 C 
BRANCH   5   6
HETATM    6  O   UNL     1     -32.134  -6.751 -17.148  1.00  0.00    -0.392 OA
HETATM    7  H   UNL     1     -32.959  -6.419 -17.537  1.00  0.00     0.210 HD
ENDBRANCH   5   6
BRANCH   5   8
HETATM    8  C   UNL     1     -29.959  -5.769 -17.476  1.00  0.00     0.036 C 
BRANCH   8   9
HETATM    9  C   UNL     1     -29.201  -7.006 -16.988  1.00  0.00     0.013 C 
BRANCH   9  10
HETATM   10  C   UNL     1     -28.291  -6.705 -15.801  1.00  0.00     0.110 C 
BRANCH  10  11
HETATM   11  C   UNL     1     -26.850  -6.578 -16.243  1.00  0.00     0.139 C 
HETATM   12  O   UNL     1     -26.423  -5.759 -17.039  1.00  0.00    -0.650 OA
BRANCH  11  13
HETATM   13  O   UNL     1     -26.048  -7.494 -15.651  1.00  0.00    -0.776 OA
HETATM   14  H   UNL     1     -25.800  -7.268 -14.737  1.00  0.00     0.167 HD
ENDBRANCH  11  13
ENDBRANCH  10  11
ENDBRANCH   9  10
ENDBRANCH   8   9
ENDBRANCH   5   8
ENDBRANCH   4   5
ENDBRANCH   2   3
BRANCH   1  15
HETATM   15  C   UNL     1     -35.754  -1.129 -16.874  1.00  0.00     0.054 C 
BRANCH  15  16
HETATM   16  C   UNL     1     -35.838  -0.162 -15.733  1.00  0.00    -0.027 C 
HETATM   17  C   UNL     1     -34.787   0.189 -14.977  1.00  0.00    -0.027 C 
BRANCH  17  18
HETATM   18  C   UNL     1     -34.883   1.129 -13.813  1.00  0.00     0.053 C 
BRANCH  18  19
HETATM   19  C   UNL     1     -35.144   0.388 -12.538  1.00  0.00    -0.027 C 
HETATM   20  C   UNL     1     -34.847  -0.907 -12.359  1.00  0.00    -0.030 C 
BRANCH  20  21
HETATM   21  C   UNL     1     -35.126  -1.646 -11.085  1.00  0.00     0.027 C 
BRANCH  21  22
HETATM   22  C   UNL     1     -33.841  -2.210 -10.485  1.00  0.00     0.004 C 
BRANCH  22  23
HETATM   23  C   UNL     1     -33.380  -3.443 -11.260  1.00  0.00    -0.000 C 
BRANCH  23  24
HETATM   24  C   UNL     1     -33.813  -4.729 -10.562  1.00  0.00    -0.005 C 
HETATM   25  C   UNL     1     -34.440  -5.702 -11.545  1.00  0.00     0.005 C 
ENDBRANCH  23  24
ENDBRANCH  22  23
ENDBRANCH  21  22
ENDBRANCH  20  21
ENDBRANCH  18  19
ENDBRANCH  17  18
ENDBRANCH  15  16
ENDBRANCH   1  15
TORSDOF 16
ENDMDL
MODEL 4
REMARK VINA RESULT:      -6.7      3.108      4.851
REMARK  16 active torsions:
REMARK  status: ('A' for Active; 'I' for Inactive)
REMARK    1  A    between atoms: C_2  and  C_3 
REMARK    2  A    between atoms: C_3  and  C_4 
REMARK    3  A    between atoms: C_4  and  C_5 
REMARK    4  A    between atoms: C_5  and  C_6 
REMARK    5  A    between atoms: C_7  and  C_8 
REMARK    6  A    between atoms: C_8  and  C_9 
REMARK    7  A    between atoms: C_10  and  C_11 
REMARK    8  A    between atoms: C_11  and  C_12 
REMARK    9  A    between atoms: C_13  and  C_14 
REMARK   10  A    between atoms: C_15  and  C_16 
REMARK   11  A    between atoms: C_16  and  O_17 
REMARK   12  A    between atoms: C_16  and  C_18 
REMARK   13  A    between atoms: C_18  and  C_19 
REMARK   14  A    between atoms: C_19  and  C_20 
REMARK   15  A    between atoms: C_20  and  C_21 
REMARK   16  A    between atoms: C_21  and  O_23 
ROOT
HETATM    1  C   UNL     1     -21.674  -7.419  -1.414  1.00  0.00    -0.023 C 
HETATM    2  C   UNL     1     -21.916  -6.647  -2.485  1.00  0.00    -0.004 C 
ENDROOT
BRANCH   2   3
HETATM    3  C   UNL     1     -21.225  -6.814  -3.737  1.00  0.00    -0.002 C 
HETATM    4  C   UNL     1     -21.042  -5.810  -4.608  1.00  0.00     0.004 C 
BRANCH   4   5
HETATM    5  C   UNL     1     -20.277  -5.971  -5.890  1.00  0.00     0.141 C 
BRANCH   5   6
HETATM    6  O   UNL     1     -21.042  -6.788  -6.769  1.00  0.00    -0.392 OA
HETATM    7  H   UNL     1     -20.926  -6.447  -7.670  1.00  0.00     0.210 HD
ENDBRANCH   5   6
BRANCH   5   8
HETATM    8  C   UNL     1     -19.992  -4.628  -6.577  1.00  0.00     0.036 C 
BRANCH   8   9
HETATM    9  C   UNL     1     -21.257  -4.005  -7.170  1.00  0.00     0.013 C 
BRANCH   9  10
HETATM   10  C   UNL     1     -21.258  -4.021  -8.696  1.00  0.00     0.110 C 
BRANCH  10  11
HETATM   11  C   UNL     1     -22.671  -4.019  -9.235  1.00  0.00     0.139 C 
HETATM   12  O   UNL     1     -23.683  -4.153  -8.569  1.00  0.00    -0.650 OA
BRANCH  11  13
HETATM   13  O   UNL     1     -22.710  -3.850 -10.578  1.00  0.00    -0.776 OA
HETATM   14  H   UNL     1     -22.775  -2.919 -10.856  1.00  0.00     0.167 HD
ENDBRANCH  11  13
ENDBRANCH  10  11
ENDBRANCH   9  10
ENDBRANCH   8   9
ENDBRANCH   5   8
ENDBRANCH   4   5
ENDBRANCH   2   3
BRANCH   1  15
HETATM   15  C   UNL     1     -22.410  -7.271  -0.118  1.00  0.00     0.054 C 
BRANCH  15  16
HETATM   16  C   UNL     1     -23.088  -8.548   0.277  1.00  0.00    -0.027 C 
HETATM   17  C   UNL     1     -23.065  -9.664  -0.469  1.00  0.00    -0.027 C 
BRANCH  17  18
HETATM   18  C   UNL     1     -23.776 -10.927  -0.087  1.00  0.00     0.053 C 
BRANCH  18  19
HETATM   19  C   UNL     1     -22.822 -11.945   0.456  1.00  0.00    -0.027 C 
HETATM   20  C   UNL     1     -23.203 -13.144   0.920  1.00  0.00    -0.030 C 
BRANCH  20  21
HETATM   21  C   UNL     1     -22.244 -14.151   1.478  1.00  0.00     0.027 C 
BRANCH  21  22
HETATM   22  C   UNL     1     -22.539 -14.436   2.948  1.00  0.00     0.004 C 
BRANCH  22  23
HETATM   23  C   UNL     1     -24.040 -14.614   3.171  1.00  0.00    -0.000 C 
BRANCH  23  24
HETATM   24  C   UNL     1     -24.317 -15.581   4.319  1.00  0.00    -0.005 C 
HETATM   25  C   UNL     1     -25.694 -15.345   4.914  1.00  0.00     0.005 C 
ENDBRANCH  23  24
ENDBRANCH  22  23
ENDBRANCH  21  22
ENDBRANCH  20  21
ENDBRANCH  18  19
ENDBRANCH  17  18
ENDBRANCH  15  16
ENDBRANCH   1  15
TORSDOF 16
ENDMDL
MODEL 5
REMARK VINA RESULT:      -6.4      1.944      4.108
REMARK  16 active torsions:
REMARK  status: ('A' for Active; 'I' for Inactive)
REMARK    1  A    between atoms: C_2  and  C_3 
REMARK    2  A    between atoms: C_3  and  C_4 
REMARK    3  A    between atoms: C_4  and  C_5 
REMARK    4  A    between atoms: C_5  and  C_6 
REMARK    5  A    between atoms: C_7  and  C_8 
REMARK    6  A    between atoms: C_8  and  C_9 
REMARK    7  A    between atoms: C_10  and  C_11 
REMARK    8  A    between atoms: C_11  and  C_12 
REMARK    9  A    between atoms: C_13  and  C_14 
REMARK   10  A    between atoms: C_15  and  C_16 
REMARK   11  A    between atoms: C_16  and  O_17 
REMARK   12  A    between atoms: C_16  and  C_18 
REMARK   13  A    between atoms: C_18  and  C_19 
REMARK   14  A    between atoms: C_19  and  C_20 
REMARK   15  A    between atoms: C_20  and  C_21 
REMARK   16  A    between atoms: C_21  and  O_23 
ROOT
HETATM    1  C   UNL     1     -22.069  -7.211  -1.330  1.00  0.00    -0.023 C 
HETATM    2  C   UNL     1     -22.059  -6.109  -2.095  1.00  0.00    -0.004 C 
ENDROOT
BRANCH   2   3
HETATM    3  C   UNL     1     -21.398  -6.054  -3.373  1.00  0.00    -0.002 C 
HETATM    4  C   UNL     1     -21.073  -7.151  -4.073  1.00  0.00     0.004 C 
BRANCH   4   5
HETATM    5  C   UNL     1     -20.431  -7.094  -5.428  1.00  0.00     0.141 C 
BRANCH   5   6
HETATM    6  O   UNL     1     -21.171  -7.928  -6.312  1.00  0.00    -0.392 OA
HETATM    7  H   UNL     1     -21.228  -7.479  -7.170  1.00  0.00     0.210 HD
ENDBRANCH   5   6
BRANCH   5   8
HETATM    8  C   UNL     1     -20.393  -5.670  -6.001  1.00  0.00     0.036 C 
BRANCH   8   9
HETATM    9  C   UNL     1     -21.238  -5.537  -7.270  1.00  0.00     0.013 C 
BRANCH   9  10
HETATM   10  C   UNL     1     -21.867  -4.154  -7.412  1.00  0.00     0.110 C 
BRANCH  10  11
HETATM   11  C   UNL     1     -22.641  -4.043  -8.707  1.00  0.00     0.139 C 
HETATM   12  O   UNL     1     -23.835  -3.815  -8.802  1.00  0.00    -0.650 OA
BRANCH  11  13
HETATM   13  O   UNL     1     -21.855  -4.230  -9.794  1.00  0.00    -0.776 OA
HETATM   14  H   UNL     1     -21.564  -5.151  -9.916  1.00  0.00     0.167 HD
ENDBRANCH  11  13
ENDBRANCH  10  11
ENDBRANCH   9  10
ENDBRANCH   8   9
ENDBRANCH   5   8
ENDBRANCH   4   5
ENDBRANCH   2   3
BRANCH   1  15
HETATM   15  C   UNL     1     -22.781  -7.287  -0.014  1.00  0.00     0.054 C 
BRANCH  15  16
HETATM   16  C   UNL     1     -22.166  -8.317   0.884  1.00  0.00    -0.027 C 
HETATM   17  C   UNL     1     -21.043  -8.988   0.587  1.00  0.00    -0.027 C 
BRANCH  17  18
HETATM   18  C   UNL     1     -20.453 -10.045   1.471  1.00  0.00     0.053 C 
BRANCH  18  19
HETATM   19  C   UNL     1     -20.805 -11.417   0.986  1.00  0.00    -0.027 C 
HETATM   20  C   UNL     1     -20.652 -11.816  -0.285  1.00  0.00    -0.030 C 
BRANCH  20  21
HETATM   21  C   UNL     1     -21.020 -13.186  -0.767  1.00  0.00     0.027 C 
BRANCH  21  22
HETATM   22  C   UNL     1     -22.047 -13.114  -1.894  1.00  0.00     0.004 C 
BRANCH  22  23
HETATM   23  C   UNL     1     -23.455 -12.937  -1.329  1.00  0.00    -0.000 C 
BRANCH  23  24
HETATM   24  C   UNL     1     -23.911 -11.483  -1.425  1.00  0.00    -0.005 C 
HETATM   25  C   UNL     1     -24.270 -10.930  -0.057  1.00  0.00     0.005 C 
ENDBRANCH  23  24
ENDBRANCH  22  23
ENDBRANCH  21  22
ENDBRANCH  20  21
ENDBRANCH  18  19
ENDBRANCH  17  18
ENDBRANCH  15  16
ENDBRANCH   1  15
TORSDOF 16
ENDMDL
MODEL 6
REMARK VINA RESULT:      -6.3      2.358      4.934
REMARK  16 active torsions:
REMARK  status: ('A' for Active; 'I' for Inactive)
REMARK    1  A    between atoms: C_2  and  C_3 
REMARK    2  A    between atoms: C_3  and  C_4 
REMARK    3  A    between atoms: C_4  and  C_5 
REMARK    4  A    between atoms: C_5  and  C_6 
REMARK    5  A    between atoms: C_7  and  C_8 
REMARK    6  A    between atoms: C_8  and  C_9 
REMARK    7  A    between atoms: C_10  and  C_11 
REMARK    8  A    between atoms: C_11  and  C_12 
REMARK    9  A    between atoms: C_13  and  C_14 
REMARK   10  A    between atoms: C_15  and  C_16 
REMARK   11  A    between atoms: C_16  and  O_17 
REMARK   12  A    between atoms: C_16  and  C_18 
REMARK   13  A    between atoms: C_18  and  C_19 
REMARK   14  A    between atoms: C_19  and  C_20 
REMARK   15  A    between atoms: C_20  and  C_21 
REMARK   16  A    between atoms: C_21  and  O_23 
ROOT
HETATM    1  C   UNL     1     -22.611  -7.279  -0.433  1.00  0.00    -0.023 C 
HETATM    2  C   UNL     1     -21.636  -7.137  -1.344  1.00  0.00    -0.004 C 
ENDROOT
BRANCH   2   3
HETATM    3  C   UNL     1     -21.862  -6.560  -2.643  1.00  0.00    -0.002 C 
HETATM    4  C   UNL     1     -21.362  -7.086  -3.772  1.00  0.00     0.004 C 
BRANCH   4   5
HETATM    5  C   UNL     1     -21.640  -6.515  -5.132  1.00  0.00     0.141 C 
BRANCH   5   6
HETATM    6  O   UNL     1     -22.980  -6.037  -5.153  1.00  0.00    -0.392 OA
HETATM    7  H   UNL     1     -23.359  -6.171  -4.269  1.00  0.00     0.210 HD
ENDBRANCH   5   6
BRANCH   5   8
HETATM    8  C   UNL     1     -20.692  -5.361  -5.489  1.00  0.00     0.036 C 
BRANCH   8   9
HETATM    9  C   UNL     1     -21.179  -4.573  -6.707  1.00  0.00     0.013 C 
BRANCH   9  10
HETATM   10  C   UNL     1     -20.129  -4.494  -7.812  1.00  0.00     0.110 C 
BRANCH  10  11
HETATM   11  C   UNL     1     -20.777  -4.239  -9.155  1.00  0.00     0.139 C 
HETATM   12  O   UNL     1     -20.265  -3.640 -10.086  1.00  0.00    -0.650 OA
BRANCH  11  13
HETATM   13  O   UNL     1     -22.026  -4.756  -9.231  1.00  0.00    -0.776 OA
HETATM   14  H   UNL     1     -22.161  -5.542  -8.672  1.00  0.00     0.167 HD
ENDBRANCH  11  13
ENDBRANCH  10  11
ENDBRANCH   9  10
ENDBRANCH   8   9
ENDBRANCH   5   8
ENDBRANCH   4   5
ENDBRANCH   2   3
BRANCH   1  15
HETATM   15  C   UNL     1     -22.378  -7.850   0.932  1.00  0.00     0.054 C 
BRANCH  15  16
HETATM   16  C   UNL     1     -21.237  -8.821   0.934  1.00  0.00    -0.027 C 
HETATM   17  C   UNL     1     -21.358 -10.112   0.588  1.00  0.00    -0.027 C 
BRANCH  17  18
HETATM   18  C   UNL     1     -20.222 -11.088   0.628  1.00  0.00     0.053 C 
BRANCH  18  19
HETATM   19  C   UNL     1     -19.604 -11.258  -0.726  1.00  0.00    -0.027 C 
HETATM   20  C   UNL     1     -19.778 -10.390  -1.733  1.00  0.00    -0.030 C 
BRANCH  20  21
HETATM   21  C   UNL     1     -19.170 -10.574  -3.090  1.00  0.00     0.027 C 
BRANCH  21  22
HETATM   22  C   UNL     1     -18.231  -9.420  -3.433  1.00  0.00     0.004 C 
BRANCH  22  23
HETATM   23  C   UNL     1     -16.814  -9.715  -2.943  1.00  0.00    -0.000 C 
BRANCH  23  24
HETATM   24  C   UNL     1     -15.823  -9.739  -4.103  1.00  0.00    -0.005 C 
HETATM   25  C   UNL     1     -16.535  -9.941  -5.429  1.00  0.00     0.005 C 
ENDBRANCH  23  24
ENDBRANCH  22  23
ENDBRANCH  21  22
ENDBRANCH  20  21
ENDBRANCH  18  19
ENDBRANCH  17  18
ENDBRANCH  15  16
ENDBRANCH   1  15
TORSDOF 16
ENDMDL
MODEL 7
REMARK VINA RESULT:      -6.1      4.011      9.075
REMARK  16 active torsions:
REMARK  status: ('A' for Active; 'I' for Inactive)
REMARK    1  A    between atoms: C_2  and  C_3 
REMARK    2  A    between atoms: C_3  and  C_4 
REMARK    3  A    between atoms: C_4  and  C_5 
REMARK    4  A    between atoms: C_5  and  C_6 
REMARK    5  A    between atoms: C_7  and  C_8 
REMARK    6  A    between atoms: C_8  and  C_9 
REMARK    7  A    between atoms: C_10  and  C_11 
REMARK    8  A    between atoms: C_11  and  C_12 
REMARK    9  A    between atoms: C_13  and  C_14 
REMARK   10  A    between atoms: C_15  and  C_16 
REMARK   11  A    between atoms: C_16  and  O_17 
REMARK   12  A    between atoms: C_16  and  C_18 
REMARK   13  A    between atoms: C_18  and  C_19 
REMARK   14  A    between atoms: C_19  and  C_20 
REMARK   15  A    between atoms: C_20  and  C_21 
REMARK   16  A    between atoms: C_21  and  O_23 
ROOT
HETATM    1  C   UNL     1     -21.633  -7.428  -1.160  1.00  0.00    -0.023 C 
HETATM    2  C   UNL     1     -22.228  -8.041  -0.125  1.00  0.00    -0.004 C 
ENDROOT
BRANCH   2   3
HETATM    3  C   UNL     1     -21.632  -9.153   0.569  1.00  0.00    -0.002 C 
HETATM    4  C   UNL     1     -21.653 -10.406   0.090  1.00  0.00     0.004 C 
BRANCH   4   5
HETATM    5  C   UNL     1     -20.987 -11.557   0.787  1.00  0.00     0.141 C 
BRANCH   5   6
HETATM    6  O   UNL     1     -21.982 -12.522   1.111  1.00  0.00    -0.392 OA
HETATM    7  H   UNL     1     -21.537 -13.288   1.508  1.00  0.00     0.210 HD
ENDBRANCH   5   6
BRANCH   5   8
HETATM    8  C   UNL     1     -19.908 -12.223  -0.078  1.00  0.00     0.036 C 
BRANCH   8   9
HETATM    9  C   UNL     1     -19.982 -11.773  -1.539  1.00  0.00     0.013 C 
BRANCH   9  10
HETATM   10  C   UNL     1     -18.742 -10.998  -1.977  1.00  0.00     0.110 C 
BRANCH  10  11
HETATM   11  C   UNL     1     -19.032 -10.166  -3.206  1.00  0.00     0.139 C 
HETATM   12  O   UNL     1     -18.435  -9.154  -3.533  1.00  0.00    -0.650 OA
BRANCH  11  13
HETATM   13  O   UNL     1     -20.054 -10.668  -3.938  1.00  0.00    -0.776 OA
HETATM   14  H   UNL     1     -20.683  -9.993  -4.251  1.00  0.00     0.167 HD
ENDBRANCH  11  13
ENDBRANCH  10  11
ENDBRANCH   9  10
ENDBRANCH   8   9
ENDBRANCH   5   8
ENDBRANCH   4   5
ENDBRANCH   2   3
BRANCH   1  15
HETATM   15  C   UNL     1     -22.233  -6.251  -1.867  1.00  0.00     0.054 C 
BRANCH  15  16
HETATM   16  C   UNL     1     -21.963  -6.300  -3.340  1.00  0.00    -0.027 C 
HETATM   17  C   UNL     1     -21.488  -7.383  -3.974  1.00  0.00    -0.027 C 
BRANCH  17  18
HETATM   18  C   UNL     1     -21.185  -7.415  -5.442  1.00  0.00     0.053 C 
BRANCH  18  19
HETATM   19  C   UNL     1     -20.627  -6.107  -5.909  1.00  0.00    -0.027 C 
HETATM   20  C   UNL     1     -19.736  -5.994  -6.905  1.00  0.00    -0.030 C 
BRANCH  20  21
HETATM   21  C   UNL     1     -19.170  -4.683  -7.357  1.00  0.00     0.027 C 
BRANCH  21  22
HETATM   22  C   UNL     1     -20.230  -3.841  -8.063  1.00  0.00     0.004 C 
BRANCH  22  23
HETATM   23  C   UNL     1     -20.508  -4.388  -9.462  1.00  0.00    -0.000 C 
BRANCH  23  24
HETATM   24  C   UNL     1     -21.995  -4.313  -9.799  1.00  0.00    -0.005 C 
HETATM   25  C   UNL     1     -22.829  -4.089  -8.550  1.00  0.00     0.005 C 
ENDBRANCH  23  24
ENDBRANCH  22  23
ENDBRANCH  21  22
ENDBRANCH  20  21
ENDBRANCH  18  19
ENDBRANCH  17  18
ENDBRANCH  15  16
ENDBRANCH   1  15
TORSDOF 16
ENDMDL
MODEL 8
REMARK VINA RESULT:      -6.1      1.487      3.045
REMARK  16 active torsions:
REMARK  status: ('A' for Active; 'I' for Inactive)
REMARK    1  A    between atoms: C_2  and  C_3 
REMARK    2  A    between atoms: C_3  and  C_4 
REMARK    3  A    between atoms: C_4  and  C_5 
REMARK    4  A    between atoms: C_5  and  C_6 
REMARK    5  A    between atoms: C_7  and  C_8 
REMARK    6  A    between atoms: C_8  and  C_9 
REMARK    7  A    between atoms: C_10  and  C_11 
REMARK    8  A    between atoms: C_11  and  C_12 
REMARK    9  A    between atoms: C_13  and  C_14 
REMARK   10  A    between atoms: C_15  and  C_16 
REMARK   11  A    between atoms: C_16  and  O_17 
REMARK   12  A    between atoms: C_16  and  C_18 
REMARK   13  A    between atoms: C_18  and  C_19 
REMARK   14  A    between atoms: C_19  and  C_20 
REMARK   15  A    between atoms: C_20  and  C_21 
REMARK   16  A    between atoms: C_21  and  O_23 
ROOT
HETATM    1  C   UNL     1     -20.868  -7.832  -4.861  1.00  0.00    -0.023 C 
HETATM    2  C   UNL     1     -21.907  -7.002  -5.038  1.00  0.00    -0.004 C 
ENDROOT
BRANCH   2   3
HETATM    3  C   UNL     1     -21.783  -5.730  -5.702  1.00  0.00    -0.002 C 
HETATM    4  C   UNL     1     -21.978  -5.574  -7.020  1.00  0.00     0.004 C 
BRANCH   4   5
HETATM    5  C   UNL     1     -21.900  -4.240  -7.704  1.00  0.00     0.141 C 
BRANCH   5   6
HETATM    6  O   UNL     1     -21.145  -3.357  -6.881  1.00  0.00    -0.392 OA
HETATM    7  H   UNL     1     -21.603  -2.501  -6.862  1.00  0.00     0.210 HD
ENDBRANCH   5   6
BRANCH   5   8
HETATM    8  C   UNL     1     -21.235  -4.326  -9.085  1.00  0.00     0.036 C 
BRANCH   8   9
HETATM    9  C   UNL     1     -22.166  -3.850 -10.203  1.00  0.00     0.013 C 
BRANCH   9  10
HETATM   10  C   UNL     1     -23.578  -4.416 -10.070  1.00  0.00     0.110 C 
BRANCH  10  11
HETATM   11  C   UNL     1     -24.605  -3.426 -10.571  1.00  0.00     0.139 C 
HETATM   12  O   UNL     1     -25.646  -3.138 -10.004  1.00  0.00    -0.650 OA
BRANCH  11  13
HETATM   13  O   UNL     1     -24.250  -2.869 -11.752  1.00  0.00    -0.776 OA
HETATM   14  H   UNL     1     -24.010  -3.517 -12.437  1.00  0.00     0.167 HD
ENDBRANCH  11  13
ENDBRANCH  10  11
ENDBRANCH   9  10
ENDBRANCH   8   9
ENDBRANCH   5   8
ENDBRANCH   4   5
ENDBRANCH   2   3
BRANCH   1  15
HETATM   15  C   UNL     1     -20.994  -9.171  -4.200  1.00  0.00     0.054 C 
BRANCH  15  16
HETATM   16  C   UNL     1     -21.494  -9.043  -2.793  1.00  0.00    -0.027 C 
HETATM   17  C   UNL     1     -20.827  -8.400  -1.822  1.00  0.00    -0.027 C 
BRANCH  17  18
HETATM   18  C   UNL     1     -21.312  -8.308  -0.407  1.00  0.00     0.053 C 
BRANCH  18  19
HETATM   19  C   UNL     1     -22.046  -9.549  -0.003  1.00  0.00    -0.027 C 
HETATM   20  C   UNL     1     -21.451 -10.737   0.174  1.00  0.00    -0.030 C 
BRANCH  20  21
HETATM   21  C   UNL     1     -22.194 -11.979   0.563  1.00  0.00     0.027 C 
BRANCH  21  22
HETATM   22  C   UNL     1     -23.680 -11.855   0.236  1.00  0.00     0.004 C 
BRANCH  22  23
HETATM   23  C   UNL     1     -24.034 -12.699  -0.987  1.00  0.00    -0.000 C 
BRANCH  23  24
HETATM   24  C   UNL     1     -22.857 -13.571  -1.416  1.00  0.00    -0.005 C 
HETATM   25  C   UNL     1     -23.244 -14.487  -2.564  1.00  0.00     0.005 C 
ENDBRANCH  23  24
ENDBRANCH  22  23
ENDBRANCH  21  22
ENDBRANCH  20  21
ENDBRANCH  18  19
ENDBRANCH  17  18
ENDBRANCH  15  16
ENDBRANCH   1  15
TORSDOF 16
ENDMDL
MODEL 9
REMARK VINA RESULT:      -6.1      5.655     10.670
REMARK  16 active torsions:
REMARK  status: ('A' for Active; 'I' for Inactive)
REMARK    1  A    between atoms: C_2  and  C_3 
REMARK    2  A    between atoms: C_3  and  C_4 
REMARK    3  A    between atoms: C_4  and  C_5 
REMARK    4  A    between atoms: C_5  and  C_6 
REMARK    5  A    between atoms: C_7  and  C_8 
REMARK    6  A    between atoms: C_8  and  C_9 
REMARK    7  A    between atoms: C_10  and  C_11 
REMARK    8  A    between atoms: C_11  and  C_12 
REMARK    9  A    between atoms: C_13  and  C_14 
REMARK   10  A    between atoms: C_15  and  C_16 
REMARK   11  A    between atoms: C_16  and  O_17 
REMARK   12  A    between atoms: C_16  and  C_18 
REMARK   13  A    between atoms: C_18  and  C_19 
REMARK   14  A    between atoms: C_19  and  C_20 
REMARK   15  A    between atoms: C_20  and  C_21 
REMARK   16  A    between atoms: C_21  and  O_23 
ROOT
HETATM    1  C   UNL     1     -21.539  -7.745  -0.954  1.00  0.00    -0.023 C 
HETATM    2  C   UNL     1     -22.253  -8.598  -0.204  1.00  0.00    -0.004 C 
ENDROOT
BRANCH   2   3
HETATM    3  C   UNL     1     -21.682  -9.779   0.391  1.00  0.00    -0.002 C 
HETATM    4  C   UNL     1     -21.353 -10.867  -0.322  1.00  0.00     0.004 C 
BRANCH   4   5
HETATM    5  C   UNL     1     -20.710 -12.078   0.288  1.00  0.00     0.141 C 
BRANCH   5   6
HETATM    6  O   UNL     1     -21.643 -13.152   0.246  1.00  0.00    -0.392 OA
HETATM    7  H   UNL     1     -21.144 -13.983   0.281  1.00  0.00     0.210 HD
ENDBRANCH   5   6
BRANCH   5   8
HETATM    8  C   UNL     1     -19.431 -12.499  -0.449  1.00  0.00     0.036 C 
BRANCH   8   9
HETATM    9  C   UNL     1     -18.168 -12.124   0.330  1.00  0.00     0.013 C 
BRANCH   9  10
HETATM   10  C   UNL     1     -17.345 -13.345   0.734  1.00  0.00     0.110 C 
BRANCH  10  11
HETATM   11  C   UNL     1     -16.183 -12.944   1.616  1.00  0.00     0.139 C 
HETATM   12  O   UNL     1     -15.668 -13.647   2.469  1.00  0.00    -0.650 OA
BRANCH  11  13
HETATM   13  O   UNL     1     -15.754 -11.686   1.362  1.00  0.00    -0.776 OA
HETATM   14  H   UNL     1     -15.570 -11.163   2.162  1.00  0.00     0.167 HD
ENDBRANCH  11  13
ENDBRANCH  10  11
ENDBRANCH   9  10
ENDBRANCH   8   9
ENDBRANCH   5   8
ENDBRANCH   4   5
ENDBRANCH   2   3
BRANCH   1  15
HETATM   15  C   UNL     1     -22.118  -6.499  -1.550  1.00  0.00     0.054 C 
BRANCH  15  16
HETATM   16  C   UNL     1     -21.971  -6.483  -3.041  1.00  0.00    -0.027 C 
HETATM   17  C   UNL     1     -21.630  -7.560  -3.766  1.00  0.00    -0.027 C 
BRANCH  17  18
HETATM   18  C   UNL     1     -21.447  -7.530  -5.253  1.00  0.00     0.053 C 
BRANCH  18  19
HETATM   19  C   UNL     1     -20.827  -6.241  -5.698  1.00  0.00    -0.027 C 
HETATM   20  C   UNL     1     -20.024  -6.136  -6.767  1.00  0.00    -0.030 C 
BRANCH  20  21
HETATM   21  C   UNL     1     -19.394  -4.846  -7.198  1.00  0.00     0.027 C 
BRANCH  21  22
HETATM   22  C   UNL     1     -20.409  -3.946  -7.899  1.00  0.00     0.004 C 
BRANCH  22  23
HETATM   23  C   UNL     1     -20.518  -4.311  -9.379  1.00  0.00    -0.000 C 
BRANCH  23  24
HETATM   24  C   UNL     1     -21.949  -4.148  -9.884  1.00  0.00    -0.005 C 
HETATM   25  C   UNL     1     -22.924  -4.004  -8.729  1.00  0.00     0.005 C 
ENDBRANCH  23  24
ENDBRANCH  22  23
ENDBRANCH  21  22
ENDBRANCH  20  21
ENDBRANCH  18  19
ENDBRANCH  17  18
ENDBRANCH  15  16
ENDBRANCH   1  15
TORSDOF 16
ENDMDL
