MODEL 1
REMARK VINA RESULT:      -7.0      0.000      0.000
REMARK  19 active torsions:
REMARK  status: ('A' for Active; 'I' for Inactive)
REMARK    1  A    between atoms: C_2  and  C_3 
REMARK    2  A    between atoms: C_3  and  C_4 
REMARK    3  A    between atoms: C_4  and  C_5 
REMARK    4  A    between atoms: C_5  and  C_6 
REMARK    5  A    between atoms: C_6  and  C_7 
REMARK    6  A    between atoms: C_7  and  C_8 
REMARK    7  A    between atoms: C_8  and  C_9 
REMARK    8  A    between atoms: C_10  and  C_11 
REMARK    9  A    between atoms: C_11  and  C_12 
REMARK   10  A    between atoms: C_12  and  C_13 
REMARK   11  A    between atoms: C_13  and  C_14 
REMARK   12  A    between atoms: C_14  and  C_15 
REMARK   13  A    between atoms: C_15  and  C_16 
REMARK   14  A    between atoms: C_16  and  C_17 
REMARK   15  A    between atoms: C_17  and  C_18 
REMARK       I    between atoms: C_18  and  N_20 
REMARK   16  A    between atoms: N_20  and  C_21 
REMARK   17  A    between atoms: C_21  and  C_22 
REMARK   18  A    between atoms: C_25  and  O_26 
REMARK   19  A    between atoms: C_27  and  O_28 
ROOT
HETATM    1  C   UNL     1     -21.242  -8.704  -3.698  1.00  0.00     0.009 C 
ENDROOT
BRANCH   1   2
HETATM    2  C   UNL     1     -20.754  -7.789  -2.578  1.00  0.00     0.000 C 
BRANCH   2   3
HETATM    3  C   UNL     1     -21.618  -6.538  -2.461  1.00  0.00     0.000 C 
BRANCH   3   4
HETATM    4  C   UNL     1     -22.415  -6.493  -1.153  1.00  0.00     0.000 C 
BRANCH   4   5
HETATM    5  C   UNL     1     -22.040  -7.573  -0.133  1.00  0.00     0.004 C 
BRANCH   5   6
HETATM    6  C   UNL     1     -23.249  -8.389   0.320  1.00  0.00     0.027 C 
BRANCH   6   7
HETATM    7  C   UNL     1     -23.058  -9.846   0.034  1.00  0.00    -0.031 C 
HETATM    8  C   UNL     1     -21.922 -10.342  -0.475  1.00  0.00    -0.031 C 
BRANCH   8   9
HETATM    9  C   UNL     1     -21.706 -11.796  -0.743  1.00  0.00     0.027 C 
BRANCH   9  10
HETATM   10  C   UNL     1     -20.252 -12.176  -0.471  1.00  0.00     0.004 C 
BRANCH  10  11
HETATM   11  C   UNL     1     -19.312 -11.207  -1.179  1.00  0.00     0.000 C 
BRANCH  11  12
HETATM   12  C   UNL     1     -18.730 -11.835  -2.441  1.00  0.00     0.000 C 
BRANCH  12  13
HETATM   13  C   UNL     1     -18.296 -10.754  -3.425  1.00  0.00     0.000 C 
BRANCH  13  14
HETATM   14  C   UNL     1     -17.549  -9.635  -2.705  1.00  0.00    -0.000 C 
BRANCH  14  15
HETATM   15  C   UNL     1     -16.118  -9.512  -3.219  1.00  0.00    -0.005 C 
HETATM   16  C   UNL     1     -16.007 -10.012  -4.650  1.00  0.00     0.005 C 
ENDBRANCH  14  15
ENDBRANCH  13  14
ENDBRANCH  12  13
ENDBRANCH  11  12
ENDBRANCH  10  11
ENDBRANCH   9  10
ENDBRANCH   8   9
ENDBRANCH   6   7
ENDBRANCH   5   6
ENDBRANCH   4   5
ENDBRANCH   3   4
ENDBRANCH   2   3
ENDBRANCH   1   2
BRANCH   1  17
HETATM   17  C   UNL     1     -21.584  -7.860  -4.917  1.00  0.00     0.103 C 
BRANCH  17  18
HETATM   18  C   UNL     1     -20.395  -7.567  -5.802  1.00  0.00     0.217 C 
HETATM   19  O   UNL     1     -19.369  -8.243  -5.811  1.00  0.00    -0.274 OA
HETATM   20  N   UNL     1     -20.494  -6.478  -6.623  1.00  0.00    -0.357 N 
HETATM   21  H   UNL     1     -19.696  -6.363  -7.236  1.00  0.00     0.162 HD
BRANCH  20  22
HETATM   22  C   UNL     1     -21.653  -5.632  -6.828  1.00  0.00     0.161 C 
BRANCH  22  23
HETATM   23  C   UNL     1     -21.525  -4.814  -8.087  1.00  0.00    -0.038 A 
HETATM   24  C   UNL     1     -20.262  -4.519  -8.608  1.00  0.00     0.012 A 
HETATM   25  C   UNL     1     -20.139  -3.793  -9.791  1.00  0.00     0.040 A 
HETATM   26  C   UNL     1     -21.276  -3.349 -10.474  1.00  0.00     0.099 A 
HETATM   27  C   UNL     1     -22.552  -3.621  -9.970  1.00  0.00     0.101 A 
HETATM   28  C   UNL     1     -22.660  -4.348  -8.774  1.00  0.00     0.048 A 
BRANCH  26  29
HETATM   29  O   UNL     1     -21.096  -2.654 -11.638  1.00  0.00    -0.358 OA
HETATM   30  H   UNL     1     -20.215  -2.249 -11.633  1.00  0.00     0.217 HD
ENDBRANCH  26  29
BRANCH  27  31
HETATM   31  O   UNL     1     -23.766  -3.273 -10.498  1.00  0.00    -0.353 OA
HETATM   32  C   UNL     1     -24.904  -3.319  -9.648  1.00  0.00     0.210 C 
ENDBRANCH  27  31
ENDBRANCH  22  23
ENDBRANCH  20  22
ENDBRANCH  17  18
ENDBRANCH   1  17
TORSDOF 19
ENDMDL
MODEL 2
REMARK VINA RESULT:      -6.9      1.938      2.579
REMARK  19 active torsions:
REMARK  status: ('A' for Active; 'I' for Inactive)
REMARK    1  A    between atoms: C_2  and  C_3 
REMARK    2  A    between atoms: C_3  and  C_4 
REMARK    3  A    between atoms: C_4  and  C_5 
REMARK    4  A    between atoms: C_5  and  C_6 
REMARK    5  A    between atoms: C_6  and  C_7 
REMARK    6  A    between atoms: C_7  and  C_8 
REMARK    7  A    between atoms: C_8  and  C_9 
REMARK    8  A    between atoms: C_10  and  C_11 
REMARK    9  A    between atoms: C_11  and  C_12 
REMARK   10  A    between atoms: C_12  and  C_13 
REMARK   11  A    between atoms: C_13  and  C_14 
REMARK   12  A    between atoms: C_14  and  C_15 
REMARK   13  A    between atoms: C_15  and  C_16 
REMARK   14  A    between atoms: C_16  and  C_17 
REMARK   15  A    between atoms: C_17  and  C_18 
REMARK       I    between atoms: C_18  and  N_20 
REMARK   16  A    between atoms: N_20  and  C_21 
REMARK   17  A    between atoms: C_21  and  C_22 
REMARK   18  A    between atoms: C_25  and  O_26 
REMARK   19  A    between atoms: C_27  and  O_28 
ROOT
HETATM    1  C   UNL     1     -21.317  -7.354  -3.049  1.00  0.00     0.009 C 
ENDROOT
BRANCH   1   2
HETATM    2  C   UNL     1     -22.067  -6.414  -2.111  1.00  0.00     0.000 C 
BRANCH   2   3
HETATM    3  C   UNL     1     -22.320  -7.061  -0.754  1.00  0.00     0.000 C 
BRANCH   3   4
HETATM    4  C   UNL     1     -21.349  -8.209  -0.459  1.00  0.00     0.000 C 
BRANCH   4   5
HETATM    5  C   UNL     1     -21.963  -9.396   0.291  1.00  0.00     0.004 C 
BRANCH   5   6
HETATM    6  C   UNL     1     -23.460  -9.540   0.024  1.00  0.00     0.027 C 
BRANCH   6   7
HETATM    7  C   UNL     1     -23.864 -10.981  -0.033  1.00  0.00    -0.031 C 
HETATM    8  C   UNL     1     -23.072 -11.973   0.397  1.00  0.00    -0.031 C 
BRANCH   8   9
HETATM    9  C   UNL     1     -23.469 -13.413   0.371  1.00  0.00     0.027 C 
BRANCH   9  10
HETATM   10  C   UNL     1     -22.344 -14.265  -0.213  1.00  0.00     0.004 C 
BRANCH  10  11
HETATM   11  C   UNL     1     -22.659 -14.638  -1.656  1.00  0.00     0.000 C 
BRANCH  11  12
HETATM   12  C   UNL     1     -21.582 -14.119  -2.601  1.00  0.00     0.000 C 
BRANCH  12  13
HETATM   13  C   UNL     1     -20.533 -13.322  -1.832  1.00  0.00     0.000 C 
BRANCH  13  14
HETATM   14  C   UNL     1     -20.566 -11.852  -2.238  1.00  0.00    -0.000 C 
BRANCH  14  15
HETATM   15  C   UNL     1     -21.313 -11.663  -3.555  1.00  0.00    -0.005 C 
HETATM   16  C   UNL     1     -22.534 -10.778  -3.367  1.00  0.00     0.005 C 
ENDBRANCH  14  15
ENDBRANCH  13  14
ENDBRANCH  12  13
ENDBRANCH  11  12
ENDBRANCH  10  11
ENDBRANCH   9  10
ENDBRANCH   8   9
ENDBRANCH   6   7
ENDBRANCH   5   6
ENDBRANCH   4   5
ENDBRANCH   3   4
ENDBRANCH   2   3
ENDBRANCH   1   2
BRANCH   1  17
HETATM   17  C   UNL     1     -21.889  -7.218  -4.453  1.00  0.00     0.103 C 
BRANCH  17  18
HETATM   18  C   UNL     1     -20.974  -7.747  -5.533  1.00  0.00     0.217 C 
HETATM   19  O   UNL     1     -20.856  -8.941  -5.801  1.00  0.00    -0.274 OA
HETATM   20  N   UNL     1     -20.245  -6.823  -6.228  1.00  0.00    -0.357 N 
HETATM   21  H   UNL     1     -19.696  -7.225  -6.977  1.00  0.00     0.162 HD
BRANCH  20  22
HETATM   22  C   UNL     1     -20.329  -5.379  -6.128  1.00  0.00     0.161 C 
BRANCH  22  23
HETATM   23  C   UNL     1     -20.778  -4.760  -7.426  1.00  0.00    -0.038 A 
HETATM   24  C   UNL     1     -19.868  -4.582  -8.472  1.00  0.00     0.012 A 
HETATM   25  C   UNL     1     -20.286  -4.042  -9.687  1.00  0.00     0.040 A 
HETATM   26  C   UNL     1     -21.621  -3.672  -9.877  1.00  0.00     0.099 A 
HETATM   27  C   UNL     1     -22.552  -3.830  -8.845  1.00  0.00     0.101 A 
HETATM   28  C   UNL     1     -22.114  -4.369  -7.624  1.00  0.00     0.048 A 
BRANCH  26  29
HETATM   29  O   UNL     1     -21.980  -3.162 -11.094  1.00  0.00    -0.358 OA
HETATM   30  H   UNL     1     -22.522  -3.815 -11.565  1.00  0.00     0.217 HD
ENDBRANCH  26  29
BRANCH  27  31
HETATM   31  O   UNL     1     -23.888  -3.530  -8.850  1.00  0.00    -0.353 OA
HETATM   32  C   UNL     1     -24.719  -4.190  -9.795  1.00  0.00     0.210 C 
ENDBRANCH  27  31
ENDBRANCH  22  23
ENDBRANCH  20  22
ENDBRANCH  17  18
ENDBRANCH   1  17
TORSDOF 19
ENDMDL
MODEL 3
REMARK VINA RESULT:      -6.9      2.975      5.181
REMARK  19 active torsions:
REMARK  status: ('A' for Active; 'I' for Inactive)
REMARK    1  A    between atoms: C_2  and  C_3 
REMARK    2  A    between atoms: C_3  and  C_4 
REMARK    3  A    between atoms: C_4  and  C_5 
REMARK    4  A    between atoms: C_5  and  C_6 
REMARK    5  A    between atoms: C_6  and  C_7 
REMARK    6  A    between atoms: C_7  and  C_8 
REMARK    7  A    between atoms: C_8  and  C_9 
REMARK    8  A    between atoms: C_10  and  C_11 
REMARK    9  A    between atoms: C_11  and  C_12 
REMARK   10  A    between atoms: C_12  and  C_13 
REMARK   11  A    between atoms: C_13  and  C_14 
REMARK   12  A    between atoms: C_14  and  C_15 
REMARK   13  A    between atoms: C_15  and  C_16 
REMARK   14  A    between atoms: C_16  and  C_17 
REMARK   15  A    between atoms: C_17  and  C_18 
REMARK       I    between atoms: C_18  and  N_20 
REMARK   16  A    between atoms: N_20  and  C_21 
REMARK   17  A    between atoms: C_21  and  C_22 
REMARK   18  A    between atoms: C_25  and  O_26 
REMARK   19  A    between atoms: C_27  and  O_28 
ROOT
HETATM    1  C   UNL     1     -20.174  -7.157  -5.691  1.00  0.00     0.009 C 
ENDROOT
BRANCH   1   2
HETATM    2  C   UNL     1     -21.507  -7.107  -4.950  1.00  0.00     0.000 C 
BRANCH   2   3
HETATM    3  C   UNL     1     -21.459  -7.916  -3.658  1.00  0.00     0.000 C 
BRANCH   3   4
HETATM    4  C   UNL     1     -21.504  -7.033  -2.408  1.00  0.00     0.000 C 
BRANCH   4   5
HETATM    5  C   UNL     1     -21.345  -7.785  -1.082  1.00  0.00     0.004 C 
BRANCH   5   6
HETATM    6  C   UNL     1     -22.525  -7.556  -0.139  1.00  0.00     0.027 C 
BRANCH   6   7
HETATM    7  C   UNL     1     -23.187  -8.849   0.223  1.00  0.00    -0.031 C 
HETATM    8  C   UNL     1     -23.071  -9.957  -0.521  1.00  0.00    -0.031 C 
BRANCH   8   9
HETATM    9  C   UNL     1     -23.704 -11.261  -0.161  1.00  0.00     0.027 C 
BRANCH   9  10
HETATM   10  C   UNL     1     -22.722 -12.130   0.622  1.00  0.00     0.004 C 
BRANCH  10  11
HETATM   11  C   UNL     1     -23.286 -13.535   0.798  1.00  0.00     0.000 C 
BRANCH  11  12
HETATM   12  C   UNL     1     -23.839 -13.728   2.205  1.00  0.00     0.000 C 
BRANCH  12  13
HETATM   13  C   UNL     1     -23.879 -15.209   2.567  1.00  0.00     0.000 C 
BRANCH  13  14
HETATM   14  C   UNL     1     -24.149 -15.396   4.056  1.00  0.00    -0.000 C 
BRANCH  14  15
HETATM   15  C   UNL     1     -22.849 -15.597   4.829  1.00  0.00    -0.005 C 
HETATM   16  C   UNL     1     -23.033 -15.268   6.301  1.00  0.00     0.005 C 
ENDBRANCH  14  15
ENDBRANCH  13  14
ENDBRANCH  12  13
ENDBRANCH  11  12
ENDBRANCH  10  11
ENDBRANCH   9  10
ENDBRANCH   8   9
ENDBRANCH   6   7
ENDBRANCH   5   6
ENDBRANCH   4   5
ENDBRANCH   3   4
ENDBRANCH   2   3
ENDBRANCH   1   2
BRANCH   1  17
HETATM   17  C   UNL     1     -20.261  -6.280  -6.932  1.00  0.00     0.103 C 
BRANCH  17  18
HETATM   18  C   UNL     1     -19.892  -4.837  -6.679  1.00  0.00     0.217 C 
HETATM   19  O   UNL     1     -19.454  -4.423  -5.608  1.00  0.00    -0.274 OA
HETATM   20  N   UNL     1     -20.073  -3.965  -7.717  1.00  0.00    -0.357 N 
HETATM   21  H   UNL     1     -19.755  -3.026  -7.514  1.00  0.00     0.162 HD
BRANCH  20  22
HETATM   22  C   UNL     1     -20.474  -4.283  -9.074  1.00  0.00     0.161 C 
BRANCH  22  23
HETATM   23  C   UNL     1     -21.943  -4.029  -9.290  1.00  0.00    -0.038 A 
HETATM   24  C   UNL     1     -22.861  -4.306  -8.273  1.00  0.00     0.012 A 
HETATM   25  C   UNL     1     -24.217  -4.041  -8.455  1.00  0.00     0.040 A 
HETATM   26  C   UNL     1     -24.678  -3.495  -9.657  1.00  0.00     0.099 A 
HETATM   27  C   UNL     1     -23.784  -3.217 -10.695  1.00  0.00     0.101 A 
HETATM   28  C   UNL     1     -22.421  -3.496 -10.500  1.00  0.00     0.048 A 
BRANCH  26  29
HETATM   29  O   UNL     1     -26.017  -3.240  -9.775  1.00  0.00    -0.358 OA
HETATM   30  H   UNL     1     -26.264  -3.272 -10.713  1.00  0.00     0.217 HD
ENDBRANCH  26  29
BRANCH  27  31
HETATM   31  O   UNL     1     -24.050  -2.684 -11.928  1.00  0.00    -0.353 OA
HETATM   32  C   UNL     1     -22.975  -2.105 -12.654  1.00  0.00     0.210 C 
ENDBRANCH  27  31
ENDBRANCH  22  23
ENDBRANCH  20  22
ENDBRANCH  17  18
ENDBRANCH   1  17
TORSDOF 19
ENDMDL
MODEL 4
REMARK VINA RESULT:      -6.7      1.497      2.779
REMARK  19 active torsions:
REMARK  status: ('A' for Active; 'I' for Inactive)
REMARK    1  A    between atoms: C_2  and  C_3 
REMARK    2  A    between atoms: C_3  and  C_4 
REMARK    3  A    between atoms: C_4  and  C_5 
REMARK    4  A    between atoms: C_5  and  C_6 
REMARK    5  A    between atoms: C_6  and  C_7 
REMARK    6  A    between atoms: C_7  and  C_8 
REMARK    7  A    between atoms: C_8  and  C_9 
REMARK    8  A    between atoms: C_10  and  C_11 
REMARK    9  A    between atoms: C_11  and  C_12 
REMARK   10  A    between atoms: C_12  and  C_13 
REMARK   11  A    between atoms: C_13  and  C_14 
REMARK   12  A    between atoms: C_14  and  C_15 
REMARK   13  A    between atoms: C_15  and  C_16 
REMARK   14  A    between atoms: C_16  and  C_17 
REMARK   15  A    between atoms: C_17  and  C_18 
REMARK       I    between atoms: C_18  and  N_20 
REMARK   16  A    between atoms: N_20  and  C_21 
REMARK   17  A    between atoms: C_21  and  C_22 
REMARK   18  A    between atoms: C_25  and  O_26 
REMARK   19  A    between atoms: C_27  and  O_28 
ROOT
HETATM    1  C   UNL     1     -21.802  -7.235  -3.372  1.00  0.00     0.009 C 
ENDROOT
BRANCH   1   2
HETATM    2  C   UNL     1     -21.228  -6.694  -2.065  1.00  0.00     0.000 C 
BRANCH   2   3
HETATM    3  C   UNL     1     -22.279  -6.672  -0.960  1.00  0.00     0.000 C 
BRANCH   3   4
HETATM    4  C   UNL     1     -22.606  -8.071  -0.430  1.00  0.00     0.000 C 
BRANCH   4   5
HETATM    5  C   UNL     1     -21.802  -8.497   0.804  1.00  0.00     0.004 C 
BRANCH   5   6
HETATM    6  C   UNL     1     -20.997  -9.771   0.560  1.00  0.00     0.027 C 
BRANCH   6   7
HETATM    7  C   UNL     1     -20.862 -10.057  -0.903  1.00  0.00    -0.031 C 
HETATM    8  C   UNL     1     -19.679 -10.091  -1.530  1.00  0.00    -0.031 C 
BRANCH   8   9
HETATM    9  C   UNL     1     -19.525 -10.399  -2.983  1.00  0.00     0.027 C 
BRANCH   9  10
HETATM   10  C   UNL     1     -18.555  -9.417  -3.636  1.00  0.00     0.004 C 
BRANCH  10  11
HETATM   11  C   UNL     1     -17.193  -9.489  -2.956  1.00  0.00     0.000 C 
BRANCH  11  12
HETATM   12  C   UNL     1     -16.084  -9.703  -3.978  1.00  0.00     0.000 C 
BRANCH  12  13
HETATM   13  C   UNL     1     -15.788 -11.190  -4.144  1.00  0.00     0.000 C 
BRANCH  13  14
HETATM   14  C   UNL     1     -14.995 -11.445  -5.421  1.00  0.00    -0.000 C 
BRANCH  14  15
HETATM   15  C   UNL     1     -13.734 -12.254  -5.132  1.00  0.00    -0.005 C 
HETATM   16  C   UNL     1     -13.173 -12.865  -6.405  1.00  0.00     0.005 C 
ENDBRANCH  14  15
ENDBRANCH  13  14
ENDBRANCH  12  13
ENDBRANCH  11  12
ENDBRANCH  10  11
ENDBRANCH   9  10
ENDBRANCH   8   9
ENDBRANCH   6   7
ENDBRANCH   5   6
ENDBRANCH   4   5
ENDBRANCH   3   4
ENDBRANCH   2   3
ENDBRANCH   1   2
BRANCH   1  17
HETATM   17  C   UNL     1     -21.269  -6.406  -4.531  1.00  0.00     0.103 C 
BRANCH  17  18
HETATM   18  C   UNL     1     -21.035  -7.207  -5.790  1.00  0.00     0.217 C 
HETATM   19  O   UNL     1     -21.143  -8.430  -5.850  1.00  0.00    -0.274 OA
HETATM   20  N   UNL     1     -20.679  -6.505  -6.909  1.00  0.00    -0.357 N 
HETATM   21  H   UNL     1     -20.594  -7.082  -7.735  1.00  0.00     0.162 HD
BRANCH  20  22
HETATM   22  C   UNL     1     -20.608  -5.065  -7.058  1.00  0.00     0.161 C 
BRANCH  22  23
HETATM   23  C   UNL     1     -21.684  -4.551  -7.980  1.00  0.00    -0.038 A 
HETATM   24  C   UNL     1     -23.026  -4.607  -7.593  1.00  0.00     0.012 A 
HETATM   25  C   UNL     1     -24.022  -4.102  -8.427  1.00  0.00     0.040 A 
HETATM   26  C   UNL     1     -23.694  -3.532  -9.660  1.00  0.00     0.099 A 
HETATM   27  C   UNL     1     -22.360  -3.471 -10.077  1.00  0.00     0.101 A 
HETATM   28  C   UNL     1     -21.368  -3.991  -9.230  1.00  0.00     0.048 A 
BRANCH  26  29
HETATM   29  O   UNL     1     -24.710  -3.037 -10.431  1.00  0.00    -0.358 OA
HETATM   30  H   UNL     1     -24.634  -3.401 -11.327  1.00  0.00     0.217 HD
ENDBRANCH  26  29
BRANCH  27  31
HETATM   31  O   UNL     1     -21.855  -2.952 -11.239  1.00  0.00    -0.353 OA
HETATM   32  C   UNL     1     -20.482  -2.587 -11.268  1.00  0.00     0.210 C 
ENDBRANCH  27  31
ENDBRANCH  22  23
ENDBRANCH  20  22
ENDBRANCH  17  18
ENDBRANCH   1  17
TORSDOF 19
ENDMDL
MODEL 5
REMARK VINA RESULT:      -6.7      1.554      2.080
REMARK  19 active torsions:
REMARK  status: ('A' for Active; 'I' for Inactive)
REMARK    1  A    between atoms: C_2  and  C_3 
REMARK    2  A    between atoms: C_3  and  C_4 
REMARK    3  A    between atoms: C_4  and  C_5 
REMARK    4  A    between atoms: C_5  and  C_6 
REMARK    5  A    between atoms: C_6  and  C_7 
REMARK    6  A    between atoms: C_7  and  C_8 
REMARK    7  A    between atoms: C_8  and  C_9 
REMARK    8  A    between atoms: C_10  and  C_11 
REMARK    9  A    between atoms: C_11  and  C_12 
REMARK   10  A    between atoms: C_12  and  C_13 
REMARK   11  A    between atoms: C_13  and  C_14 
REMARK   12  A    between atoms: C_14  and  C_15 
REMARK   13  A    between atoms: C_15  and  C_16 
REMARK   14  A    between atoms: C_16  and  C_17 
REMARK   15  A    between atoms: C_17  and  C_18 
REMARK       I    between atoms: C_18  and  N_20 
REMARK   16  A    between atoms: N_20  and  C_21 
REMARK   17  A    between atoms: C_21  and  C_22 
REMARK   18  A    between atoms: C_25  and  O_26 
REMARK   19  A    between atoms: C_27  and  O_28 
ROOT
HETATM    1  C   UNL     1     -19.954  -8.775  -2.980  1.00  0.00     0.009 C 
ENDROOT
BRANCH   1   2
HETATM    2  C   UNL     1     -20.297  -8.004  -1.708  1.00  0.00     0.000 C 
BRANCH   2   3
HETATM    3  C   UNL     1     -21.347  -6.929  -1.972  1.00  0.00     0.000 C 
BRANCH   3   4
HETATM    4  C   UNL     1     -22.406  -6.857  -0.868  1.00  0.00     0.000 C 
BRANCH   4   5
HETATM    5  C   UNL     1     -22.234  -7.882   0.258  1.00  0.00     0.004 C 
BRANCH   5   6
HETATM    6  C   UNL     1     -23.370  -8.902   0.295  1.00  0.00     0.027 C 
BRANCH   6   7
HETATM    7  C   UNL     1     -22.904 -10.249  -0.165  1.00  0.00    -0.031 C 
HETATM    8  C   UNL     1     -23.281 -10.787  -1.332  1.00  0.00    -0.031 C 
BRANCH   8   9
HETATM    9  C   UNL     1     -22.806 -12.118  -1.817  1.00  0.00     0.027 C 
BRANCH   9  10
HETATM   10  C   UNL     1     -21.357 -12.024  -2.291  1.00  0.00     0.004 C 
BRANCH  10  11
HETATM   11  C   UNL     1     -20.435 -12.748  -1.317  1.00  0.00     0.000 C 
BRANCH  11  12
HETATM   12  C   UNL     1     -19.422 -11.785  -0.708  1.00  0.00     0.000 C 
BRANCH  12  13
HETATM   13  C   UNL     1     -18.023 -12.392  -0.736  1.00  0.00     0.000 C 
BRANCH  13  14
HETATM   14  C   UNL     1     -17.771 -13.228   0.514  1.00  0.00    -0.000 C 
BRANCH  14  15
HETATM   15  C   UNL     1     -16.517 -12.758   1.245  1.00  0.00    -0.005 C 
HETATM   16  C   UNL     1     -15.632 -11.927   0.331  1.00  0.00     0.005 C 
ENDBRANCH  14  15
ENDBRANCH  13  14
ENDBRANCH  12  13
ENDBRANCH  11  12
ENDBRANCH  10  11
ENDBRANCH   9  10
ENDBRANCH   8   9
ENDBRANCH   6   7
ENDBRANCH   5   6
ENDBRANCH   4   5
ENDBRANCH   3   4
ENDBRANCH   2   3
ENDBRANCH   1   2
BRANCH   1  17
HETATM   17  C   UNL     1     -20.664  -8.129  -4.160  1.00  0.00     0.103 C 
BRANCH  17  18
HETATM   18  C   UNL     1     -19.828  -8.086  -5.419  1.00  0.00     0.217 C 
HETATM   19  O   UNL     1     -19.085  -8.998  -5.775  1.00  0.00    -0.274 OA
HETATM   20  N   UNL     1     -19.919  -6.954  -6.179  1.00  0.00    -0.357 N 
HETATM   21  H   UNL     1     -19.387  -7.002  -7.038  1.00  0.00     0.162 HD
BRANCH  20  22
HETATM   22  C   UNL     1     -20.812  -5.829  -5.980  1.00  0.00     0.161 C 
BRANCH  22  23
HETATM   23  C   UNL     1     -21.094  -5.111  -7.274  1.00  0.00    -0.038 A 
HETATM   24  C   UNL     1     -20.095  -4.993  -8.244  1.00  0.00     0.012 A 
HETATM   25  C   UNL     1     -20.360  -4.359  -9.457  1.00  0.00     0.040 A 
HETATM   26  C   UNL     1     -21.629  -3.834  -9.721  1.00  0.00     0.099 A 
HETATM   27  C   UNL     1     -22.645  -3.930  -8.765  1.00  0.00     0.101 A 
HETATM   28  C   UNL     1     -22.361  -4.564  -7.545  1.00  0.00     0.048 A 
BRANCH  26  29
HETATM   29  O   UNL     1     -21.838  -3.238 -10.934  1.00  0.00    -0.358 OA
HETATM   30  H   UNL     1     -21.743  -2.277 -10.835  1.00  0.00     0.217 HD
ENDBRANCH  26  29
BRANCH  27  31
HETATM   31  O   UNL     1     -23.936  -3.481  -8.848  1.00  0.00    -0.353 OA
HETATM   32  C   UNL     1     -24.724  -3.909  -9.950  1.00  0.00     0.210 C 
ENDBRANCH  27  31
ENDBRANCH  22  23
ENDBRANCH  20  22
ENDBRANCH  17  18
ENDBRANCH   1  17
TORSDOF 19
ENDMDL
MODEL 6
REMARK VINA RESULT:      -6.6      2.077      3.855
REMARK  19 active torsions:
REMARK  status: ('A' for Active; 'I' for Inactive)
REMARK    1  A    between atoms: C_2  and  C_3 
REMARK    2  A    between atoms: C_3  and  C_4 
REMARK    3  A    between atoms: C_4  and  C_5 
REMARK    4  A    between atoms: C_5  and  C_6 
REMARK    5  A    between atoms: C_6  and  C_7 
REMARK    6  A    between atoms: C_7  and  C_8 
REMARK    7  A    between atoms: C_8  and  C_9 
REMARK    8  A    between atoms: C_10  and  C_11 
REMARK    9  A    between atoms: C_11  and  C_12 
REMARK   10  A    between atoms: C_12  and  C_13 
REMARK   11  A    between atoms: C_13  and  C_14 
REMARK   12  A    between atoms: C_14  and  C_15 
REMARK   13  A    between atoms: C_15  and  C_16 
REMARK   14  A    between atoms: C_16  and  C_17 
REMARK   15  A    between atoms: C_17  and  C_18 
REMARK       I    between atoms: C_18  and  N_20 
REMARK   16  A    between atoms: N_20  and  C_21 
REMARK   17  A    between atoms: C_21  and  C_22 
REMARK   18  A    between atoms: C_25  and  O_26 
REMARK   19  A    between atoms: C_27  and  O_28 
ROOT
HETATM    1  C   UNL     1     -20.071  -7.312  -5.582  1.00  0.00     0.009 C 
ENDROOT
BRANCH   1   2
HETATM    2  C   UNL     1     -21.105  -7.893  -4.622  1.00  0.00     0.000 C 
BRANCH   2   3
HETATM    3  C   UNL     1     -20.464  -8.337  -3.312  1.00  0.00     0.000 C 
BRANCH   3   4
HETATM    4  C   UNL     1     -20.747  -7.367  -2.160  1.00  0.00     0.000 C 
BRANCH   4   5
HETATM    5  C   UNL     1     -20.994  -8.034  -0.802  1.00  0.00     0.004 C 
BRANCH   5   6
HETATM    6  C   UNL     1     -22.275  -7.538  -0.135  1.00  0.00     0.027 C 
BRANCH   6   7
HETATM    7  C   UNL     1     -23.123  -8.681   0.328  1.00  0.00    -0.031 C 
HETATM    8  C   UNL     1     -23.315  -9.785  -0.407  1.00  0.00    -0.031 C 
BRANCH   8   9
HETATM    9  C   UNL     1     -24.137 -10.946   0.051  1.00  0.00     0.027 C 
BRANCH   9  10
HETATM   10  C   UNL     1     -24.172 -12.030  -1.025  1.00  0.00     0.004 C 
BRANCH  10  11
HETATM   11  C   UNL     1     -22.915 -11.962  -1.883  1.00  0.00     0.000 C 
BRANCH  11  12
HETATM   12  C   UNL     1     -22.090 -13.237  -1.744  1.00  0.00     0.000 C 
BRANCH  12  13
HETATM   13  C   UNL     1     -20.919 -13.016  -0.793  1.00  0.00     0.000 C 
BRANCH  13  14
HETATM   14  C   UNL     1     -21.046 -13.906   0.439  1.00  0.00    -0.000 C 
BRANCH  14  15
HETATM   15  C   UNL     1     -21.917 -13.247   1.504  1.00  0.00    -0.005 C 
HETATM   16  C   UNL     1     -23.094 -14.136   1.873  1.00  0.00     0.005 C 
ENDBRANCH  14  15
ENDBRANCH  13  14
ENDBRANCH  12  13
ENDBRANCH  11  12
ENDBRANCH  10  11
ENDBRANCH   9  10
ENDBRANCH   8   9
ENDBRANCH   6   7
ENDBRANCH   5   6
ENDBRANCH   4   5
ENDBRANCH   3   4
ENDBRANCH   2   3
ENDBRANCH   1   2
BRANCH   1  17
HETATM   17  C   UNL     1     -20.736  -6.253  -6.449  1.00  0.00     0.103 C 
BRANCH  17  18
HETATM   18  C   UNL     1     -20.165  -4.867  -6.255  1.00  0.00     0.217 C 
HETATM   19  O   UNL     1     -19.761  -4.442  -5.175  1.00  0.00    -0.274 OA
HETATM   20  N   UNL     1     -20.113  -4.063  -7.360  1.00  0.00    -0.357 N 
HETATM   21  H   UNL     1     -19.669  -3.171  -7.187  1.00  0.00     0.162 HD
BRANCH  20  22
HETATM   22  C   UNL     1     -20.440  -4.422  -8.726  1.00  0.00     0.161 C 
BRANCH  22  23
HETATM   23  C   UNL     1     -21.880  -4.121  -9.048  1.00  0.00    -0.038 A 
HETATM   24  C   UNL     1     -22.875  -4.343  -8.092  1.00  0.00     0.012 A 
HETATM   25  C   UNL     1     -24.205  -4.034  -8.372  1.00  0.00     0.040 A 
HETATM   26  C   UNL     1     -24.562  -3.497  -9.612  1.00  0.00     0.099 A 
HETATM   27  C   UNL     1     -23.589  -3.273 -10.592  1.00  0.00     0.101 A 
HETATM   28  C   UNL     1     -22.255  -3.596 -10.298  1.00  0.00     0.048 A 
BRANCH  26  29
HETATM   29  O   UNL     1     -25.879  -3.197  -9.828  1.00  0.00    -0.358 OA
HETATM   30  H   UNL     1     -26.077  -2.334  -9.432  1.00  0.00     0.217 HD
ENDBRANCH  26  29
BRANCH  27  31
HETATM   31  O   UNL     1     -23.751  -2.757 -11.850  1.00  0.00    -0.353 OA
HETATM   32  C   UNL     1     -22.634  -2.131 -12.465  1.00  0.00     0.210 C 
ENDBRANCH  27  31
ENDBRANCH  22  23
ENDBRANCH  20  22
ENDBRANCH  17  18
ENDBRANCH   1  17
TORSDOF 19
ENDMDL
MODEL 7
REMARK VINA RESULT:      -6.6      1.613      2.705
REMARK  19 active torsions:
REMARK  status: ('A' for Active; 'I' for Inactive)
REMARK    1  A    between atoms: C_2  and  C_3 
REMARK    2  A    between atoms: C_3  and  C_4 
REMARK    3  A    between atoms: C_4  and  C_5 
REMARK    4  A    between atoms: C_5  and  C_6 
REMARK    5  A    between atoms: C_6  and  C_7 
REMARK    6  A    between atoms: C_7  and  C_8 
REMARK    7  A    between atoms: C_8  and  C_9 
REMARK    8  A    between atoms: C_10  and  C_11 
REMARK    9  A    between atoms: C_11  and  C_12 
REMARK   10  A    between atoms: C_12  and  C_13 
REMARK   11  A    between atoms: C_13  and  C_14 
REMARK   12  A    between atoms: C_14  and  C_15 
REMARK   13  A    between atoms: C_15  and  C_16 
REMARK   14  A    between atoms: C_16  and  C_17 
REMARK   15  A    between atoms: C_17  and  C_18 
REMARK       I    between atoms: C_18  and  N_20 
REMARK   16  A    between atoms: N_20  and  C_21 
REMARK   17  A    between atoms: C_21  and  C_22 
REMARK   18  A    between atoms: C_25  and  O_26 
REMARK   19  A    between atoms: C_27  and  O_28 
ROOT
HETATM    1  C   UNL     1     -20.446  -5.701  -4.141  1.00  0.00     0.009 C 
ENDROOT
BRANCH   1   2
HETATM    2  C   UNL     1     -21.832  -6.307  -3.940  1.00  0.00     0.000 C 
BRANCH   2   3
HETATM    3  C   UNL     1     -22.323  -6.118  -2.509  1.00  0.00     0.000 C 
BRANCH   3   4
HETATM    4  C   UNL     1     -21.568  -6.996  -1.506  1.00  0.00     0.000 C 
BRANCH   4   5
HETATM    5  C   UNL     1     -22.391  -7.443  -0.293  1.00  0.00     0.004 C 
BRANCH   5   6
HETATM    6  C   UNL     1     -21.657  -8.478   0.557  1.00  0.00     0.027 C 
BRANCH   6   7
HETATM    7  C   UNL     1     -22.262  -9.838   0.397  1.00  0.00    -0.031 C 
HETATM    8  C   UNL     1     -23.379 -10.056  -0.311  1.00  0.00    -0.031 C 
BRANCH   8   9
HETATM    9  C   UNL     1     -23.981 -11.410  -0.502  1.00  0.00     0.027 C 
BRANCH   9  10
HETATM   10  C   UNL     1     -23.261 -12.440   0.365  1.00  0.00     0.004 C 
BRANCH  10  11
HETATM   11  C   UNL     1     -22.493 -13.423  -0.511  1.00  0.00     0.000 C 
BRANCH  11  12
HETATM   12  C   UNL     1     -22.185 -12.813  -1.874  1.00  0.00     0.000 C 
BRANCH  12  13
HETATM   13  C   UNL     1     -20.756 -12.279  -1.911  1.00  0.00     0.000 C 
BRANCH  13  14
HETATM   14  C   UNL     1     -20.599 -11.233  -3.009  1.00  0.00    -0.000 C 
BRANCH  14  15
HETATM   15  C   UNL     1     -19.930  -9.971  -2.472  1.00  0.00    -0.005 C 
HETATM   16  C   UNL     1     -19.140  -9.266  -3.562  1.00  0.00     0.005 C 
ENDBRANCH  14  15
ENDBRANCH  13  14
ENDBRANCH  12  13
ENDBRANCH  11  12
ENDBRANCH  10  11
ENDBRANCH   9  10
ENDBRANCH   8   9
ENDBRANCH   6   7
ENDBRANCH   5   6
ENDBRANCH   4   5
ENDBRANCH   3   4
ENDBRANCH   2   3
ENDBRANCH   1   2
BRANCH   1  17
HETATM   17  C   UNL     1     -20.354  -5.125  -5.546  1.00  0.00     0.103 C 
BRANCH  17  18
HETATM   18  C   UNL     1     -20.186  -6.174  -6.620  1.00  0.00     0.217 C 
HETATM   19  O   UNL     1     -20.102  -7.378  -6.389  1.00  0.00    -0.274 OA
HETATM   20  N   UNL     1     -20.122  -5.728  -7.911  1.00  0.00    -0.357 N 
HETATM   21  H   UNL     1     -20.069  -6.475  -8.592  1.00  0.00     0.162 HD
BRANCH  20  22
HETATM   22  C   UNL     1     -20.308  -4.371  -8.384  1.00  0.00     0.161 C 
BRANCH  22  23
HETATM   23  C   UNL     1     -21.737  -4.119  -8.793  1.00  0.00    -0.038 A 
HETATM   24  C   UNL     1     -22.779  -4.375  -7.898  1.00  0.00     0.012 A 
HETATM   25  C   UNL     1     -24.099  -4.111  -8.259  1.00  0.00     0.040 A 
HETATM   26  C   UNL     1     -24.399  -3.588  -9.521  1.00  0.00     0.099 A 
HETATM   27  C   UNL     1     -23.377  -3.332 -10.440  1.00  0.00     0.101 A 
HETATM   28  C   UNL     1     -22.052  -3.609 -10.065  1.00  0.00     0.048 A 
BRANCH  26  29
HETATM   29  O   UNL     1     -25.710  -3.334  -9.816  1.00  0.00    -0.358 OA
HETATM   30  H   UNL     1     -26.018  -2.588  -9.278  1.00  0.00     0.217 HD
ENDBRANCH  26  29
BRANCH  27  31
HETATM   31  O   UNL     1     -23.480  -2.823 -11.707  1.00  0.00    -0.353 OA
HETATM   32  C   UNL     1     -22.364  -2.123 -12.240  1.00  0.00     0.210 C 
ENDBRANCH  27  31
ENDBRANCH  22  23
ENDBRANCH  20  22
ENDBRANCH  17  18
ENDBRANCH   1  17
TORSDOF 19
ENDMDL
MODEL 8
REMARK VINA RESULT:      -6.6      2.452      4.570
REMARK  19 active torsions:
REMARK  status: ('A' for Active; 'I' for Inactive)
REMARK    1  A    between atoms: C_2  and  C_3 
REMARK    2  A    between atoms: C_3  and  C_4 
REMARK    3  A    between atoms: C_4  and  C_5 
REMARK    4  A    between atoms: C_5  and  C_6 
REMARK    5  A    between atoms: C_6  and  C_7 
REMARK    6  A    between atoms: C_7  and  C_8 
REMARK    7  A    between atoms: C_8  and  C_9 
REMARK    8  A    between atoms: C_10  and  C_11 
REMARK    9  A    between atoms: C_11  and  C_12 
REMARK   10  A    between atoms: C_12  and  C_13 
REMARK   11  A    between atoms: C_13  and  C_14 
REMARK   12  A    between atoms: C_14  and  C_15 
REMARK   13  A    between atoms: C_15  and  C_16 
REMARK   14  A    between atoms: C_16  and  C_17 
REMARK   15  A    between atoms: C_17  and  C_18 
REMARK       I    between atoms: C_18  and  N_20 
REMARK   16  A    between atoms: N_20  and  C_21 
REMARK   17  A    between atoms: C_21  and  C_22 
REMARK   18  A    between atoms: C_25  and  O_26 
REMARK   19  A    between atoms: C_27  and  O_28 
ROOT
HETATM    1  C   UNL     1     -21.560  -8.557  -4.198  1.00  0.00     0.009 C 
ENDROOT
BRANCH   1   2
HETATM    2  C   UNL     1     -21.090  -8.317  -2.766  1.00  0.00     0.000 C 
BRANCH   2   3
HETATM    3  C   UNL     1     -21.260  -6.857  -2.359  1.00  0.00     0.000 C 
BRANCH   3   4
HETATM    4  C   UNL     1     -22.345  -6.665  -1.294  1.00  0.00     0.000 C 
BRANCH   4   5
HETATM    5  C   UNL     1     -22.106  -7.428   0.013  1.00  0.00     0.004 C 
BRANCH   5   6
HETATM    6  C   UNL     1     -23.319  -8.257   0.431  1.00  0.00     0.027 C 
BRANCH   6   7
HETATM    7  C   UNL     1     -23.205  -9.669  -0.056  1.00  0.00    -0.031 C 
HETATM    8  C   UNL     1     -22.100 -10.407   0.116  1.00  0.00    -0.031 C 
BRANCH   8   9
HETATM    9  C   UNL     1     -21.978 -11.825  -0.341  1.00  0.00     0.027 C 
BRANCH   9  10
HETATM   10  C   UNL     1     -23.344 -12.370  -0.752  1.00  0.00     0.004 C 
BRANCH  10  11
HETATM   11  C   UNL     1     -23.739 -13.536   0.146  1.00  0.00     0.000 C 
BRANCH  11  12
HETATM   12  C   UNL     1     -22.818 -13.628   1.357  1.00  0.00     0.000 C 
BRANCH  12  13
HETATM   13  C   UNL     1     -23.578 -14.161   2.568  1.00  0.00     0.000 C 
BRANCH  13  14
HETATM   14  C   UNL     1     -23.963 -15.623   2.364  1.00  0.00    -0.000 C 
BRANCH  14  15
HETATM   15  C   UNL     1     -24.752 -16.154   3.558  1.00  0.00    -0.005 C 
HETATM   16  C   UNL     1     -26.147 -16.588   3.139  1.00  0.00     0.005 C 
ENDBRANCH  14  15
ENDBRANCH  13  14
ENDBRANCH  12  13
ENDBRANCH  11  12
ENDBRANCH  10  11
ENDBRANCH   9  10
ENDBRANCH   8   9
ENDBRANCH   6   7
ENDBRANCH   5   6
ENDBRANCH   4   5
ENDBRANCH   3   4
ENDBRANCH   2   3
ENDBRANCH   1   2
BRANCH   1  17
HETATM   17  C   UNL     1     -21.595  -7.229  -4.940  1.00  0.00     0.103 C 
BRANCH  17  18
HETATM   18  C   UNL     1     -20.534  -7.105  -6.009  1.00  0.00     0.217 C 
HETATM   19  O   UNL     1     -19.577  -7.870  -6.112  1.00  0.00    -0.274 OA
HETATM   20  N   UNL     1     -20.670  -6.071  -6.894  1.00  0.00    -0.357 N 
HETATM   21  H   UNL     1     -19.968  -6.071  -7.623  1.00  0.00     0.162 HD
BRANCH  20  22
HETATM   22  C   UNL     1     -21.777  -5.141  -6.997  1.00  0.00     0.161 C 
BRANCH  22  23
HETATM   23  C   UNL     1     -21.775  -4.423  -8.322  1.00  0.00    -0.038 A 
HETATM   24  C   UNL     1     -20.572  -4.201  -8.998  1.00  0.00     0.012 A 
HETATM   25  C   UNL     1     -20.567  -3.568 -10.240  1.00  0.00     0.040 A 
HETATM   26  C   UNL     1     -21.764  -3.147 -10.826  1.00  0.00     0.099 A 
HETATM   27  C   UNL     1     -22.982  -3.347 -10.168  1.00  0.00     0.101 A 
HETATM   28  C   UNL     1     -22.970  -3.980  -8.914  1.00  0.00     0.048 A 
BRANCH  26  29
HETATM   29  O   UNL     1     -21.703  -2.546 -12.053  1.00  0.00    -0.358 OA
HETATM   30  H   UNL     1     -22.417  -1.894 -12.123  1.00  0.00     0.217 HD
ENDBRANCH  26  29
BRANCH  27  31
HETATM   31  O   UNL     1     -24.241  -3.008 -10.585  1.00  0.00    -0.353 OA
HETATM   32  C   UNL     1     -25.322  -3.207  -9.684  1.00  0.00     0.210 C 
ENDBRANCH  27  31
ENDBRANCH  22  23
ENDBRANCH  20  22
ENDBRANCH  17  18
ENDBRANCH   1  17
TORSDOF 19
ENDMDL
MODEL 9
REMARK VINA RESULT:      -6.6      2.231      2.576
REMARK  19 active torsions:
REMARK  status: ('A' for Active; 'I' for Inactive)
REMARK    1  A    between atoms: C_2  and  C_3 
REMARK    2  A    between atoms: C_3  and  C_4 
REMARK    3  A    between atoms: C_4  and  C_5 
REMARK    4  A    between atoms: C_5  and  C_6 
REMARK    5  A    between atoms: C_6  and  C_7 
REMARK    6  A    between atoms: C_7  and  C_8 
REMARK    7  A    between atoms: C_8  and  C_9 
REMARK    8  A    between atoms: C_10  and  C_11 
REMARK    9  A    between atoms: C_11  and  C_12 
REMARK   10  A    between atoms: C_12  and  C_13 
REMARK   11  A    between atoms: C_13  and  C_14 
REMARK   12  A    between atoms: C_14  and  C_15 
REMARK   13  A    between atoms: C_15  and  C_16 
REMARK   14  A    between atoms: C_16  and  C_17 
REMARK   15  A    between atoms: C_17  and  C_18 
REMARK       I    between atoms: C_18  and  N_20 
REMARK   16  A    between atoms: N_20  and  C_21 
REMARK   17  A    between atoms: C_21  and  C_22 
REMARK   18  A    between atoms: C_25  and  O_26 
REMARK   19  A    between atoms: C_27  and  O_28 
ROOT
HETATM    1  C   UNL     1     -20.028  -8.833  -3.082  1.00  0.00     0.009 C 
ENDROOT
BRANCH   1   2
HETATM    2  C   UNL     1     -20.232  -7.883  -1.905  1.00  0.00     0.000 C 
BRANCH   2   3
HETATM    3  C   UNL     1     -21.423  -6.958  -2.134  1.00  0.00     0.000 C 
BRANCH   3   4
HETATM    4  C   UNL     1     -22.381  -6.925  -0.939  1.00  0.00     0.000 C 
BRANCH   4   5
HETATM    5  C   UNL     1     -22.201  -8.072   0.062  1.00  0.00     0.004 C 
BRANCH   5   6
HETATM    6  C   UNL     1     -23.513  -8.798   0.355  1.00  0.00     0.027 C 
BRANCH   6   7
HETATM    7  C   UNL     1     -23.493 -10.193  -0.191  1.00  0.00    -0.031 C 
HETATM    8  C   UNL     1     -23.048 -10.483  -1.421  1.00  0.00    -0.031 C 
BRANCH   8   9
HETATM    9  C   UNL     1     -22.998 -11.871  -1.972  1.00  0.00     0.027 C 
BRANCH   9  10
HETATM   10  C   UNL     1     -21.722 -12.075  -2.785  1.00  0.00     0.004 C 
BRANCH  10  11
HETATM   11  C   UNL     1     -21.976 -11.759  -4.255  1.00  0.00     0.000 C 
BRANCH  11  12
HETATM   12  C   UNL     1     -21.163 -12.679  -5.158  1.00  0.00     0.000 C 
BRANCH  12  13
HETATM   13  C   UNL     1     -21.038 -12.082  -6.556  1.00  0.00     0.000 C 
BRANCH  13  14
HETATM   14  C   UNL     1     -20.893 -13.182  -7.603  1.00  0.00    -0.000 C 
BRANCH  14  15
HETATM   15  C   UNL     1     -19.577 -13.047  -8.362  1.00  0.00    -0.005 C 
HETATM   16  C   UNL     1     -18.624 -12.109  -7.640  1.00  0.00     0.005 C 
ENDBRANCH  14  15
ENDBRANCH  13  14
ENDBRANCH  12  13
ENDBRANCH  11  12
ENDBRANCH  10  11
ENDBRANCH   9  10
ENDBRANCH   8   9
ENDBRANCH   6   7
ENDBRANCH   5   6
ENDBRANCH   4   5
ENDBRANCH   3   4
ENDBRANCH   2   3
ENDBRANCH   1   2
BRANCH   1  17
HETATM   17  C   UNL     1     -20.721  -8.261  -4.310  1.00  0.00     0.103 C 
BRANCH  17  18
HETATM   18  C   UNL     1     -19.823  -8.162  -5.521  1.00  0.00     0.217 C 
HETATM   19  O   UNL     1     -19.030  -9.040  -5.854  1.00  0.00    -0.274 OA
HETATM   20  N   UNL     1     -19.917  -7.019  -6.265  1.00  0.00    -0.357 N 
HETATM   21  H   UNL     1     -19.339  -7.031  -7.095  1.00  0.00     0.162 HD
BRANCH  20  22
HETATM   22  C   UNL     1     -20.860  -5.931  -6.092  1.00  0.00     0.161 C 
BRANCH  22  23
HETATM   23  C   UNL     1     -21.110  -5.205  -7.389  1.00  0.00    -0.038 A 
HETATM   24  C   UNL     1     -20.042  -4.654  -8.103  1.00  0.00     0.012 A 
HETATM   25  C   UNL     1     -20.264  -4.012  -9.320  1.00  0.00     0.040 A 
HETATM   26  C   UNL     1     -21.556  -3.911  -9.844  1.00  0.00     0.099 A 
HETATM   27  C   UNL     1     -22.645  -4.444  -9.146  1.00  0.00     0.101 A 
HETATM   28  C   UNL     1     -22.407  -5.082  -7.918  1.00  0.00     0.048 A 
BRANCH  26  29
HETATM   29  O   UNL     1     -21.714  -3.284 -11.049  1.00  0.00    -0.358 OA
HETATM   30  H   UNL     1     -22.348  -2.556 -10.948  1.00  0.00     0.217 HD
ENDBRANCH  26  29
BRANCH  27  31
HETATM   31  O   UNL     1     -23.967  -4.442  -9.502  1.00  0.00    -0.353 OA
HETATM   32  C   UNL     1     -24.655  -3.199  -9.514  1.00  0.00     0.210 C 
ENDBRANCH  27  31
ENDBRANCH  22  23
ENDBRANCH  20  22
ENDBRANCH  17  18
ENDBRANCH   1  17
TORSDOF 19
ENDMDL
