MODEL 1
REMARK VINA RESULT:      -8.5      0.000      0.000
REMARK  3 active torsions:
REMARK  status: ('A' for Active; 'I' for Inactive)
REMARK    1  A    between atoms: C_2  and  C_3 
REMARK       I    between atoms: C_2  and  N_16 
REMARK    2  A    between atoms: C_4  and  C_5 
REMARK    3  A    between atoms: C_6  and  C_7 
ROOT
HETATM    1  C   UNL     1     -21.581  -6.346  -5.223  1.00  0.00     0.001 C 
HETATM    2  C   UNL     1     -20.962  -5.293  -5.782  1.00  0.00     0.011 C 
ENDROOT
BRANCH   1   3
HETATM    3  C   UNL     1     -21.299  -6.807  -3.881  1.00  0.00     0.005 C 
HETATM    4  C   UNL     1     -21.134  -8.103  -3.581  1.00  0.00     0.074 C 
BRANCH   4   5
HETATM    5  C   UNL     1     -20.945  -8.508  -2.165  1.00  0.00     0.243 C 
HETATM    6  O   UNL     1     -20.398  -7.736  -1.383  1.00  0.00    -0.268 OA
HETATM    7  N   UNL     1     -21.447  -9.746  -1.803  1.00  0.00    -0.349 N 
HETATM    8  C   UNL     1     -21.971 -10.767  -2.712  1.00  0.00     0.126 C 
HETATM    9  C   UNL     1     -21.449 -10.131  -0.395  1.00  0.00     0.126 C 
HETATM   10  C   UNL     1     -23.408 -11.116  -2.333  1.00  0.00     0.020 C 
HETATM   11  C   UNL     1     -23.515 -11.511  -0.858  1.00  0.00     0.003 C 
HETATM   12  C   UNL     1     -22.872 -10.462   0.053  1.00  0.00     0.020 C 
ENDBRANCH   4   5
ENDBRANCH   1   3
BRANCH   2  13
HETATM   13  C   UNL     1     -21.274  -4.749  -7.117  1.00  0.00    -0.033 A 
HETATM   14  C   UNL     1     -20.284  -4.609  -8.119  1.00  0.00     0.014 A 
HETATM   15  C   UNL     1     -20.606  -4.138  -9.398  1.00  0.00     0.040 A 
HETATM   16  C   UNL     1     -21.922  -3.829  -9.654  1.00  0.00     0.105 A 
HETATM   17  C   UNL     1     -22.895  -3.976  -8.698  1.00  0.00     0.105 A 
HETATM   18  O   UNL     1     -22.416  -3.370 -10.836  1.00  0.00    -0.323 OA
HETATM   19  C   UNL     1     -22.607  -4.436  -7.427  1.00  0.00     0.051 A 
HETATM   20  O   UNL     1     -24.128  -3.627  -9.156  1.00  0.00    -0.323 OA
HETATM   21  C   UNL     1     -23.811  -3.220 -10.504  1.00  0.00     0.352 A 
ENDBRANCH   2  13
TORSDOF 3
ENDMDL
MODEL 2
REMARK VINA RESULT:      -8.4      1.418      1.500
REMARK  3 active torsions:
REMARK  status: ('A' for Active; 'I' for Inactive)
REMARK    1  A    between atoms: C_2  and  C_3 
REMARK       I    between atoms: C_2  and  N_16 
REMARK    2  A    between atoms: C_4  and  C_5 
REMARK    3  A    between atoms: C_6  and  C_7 
ROOT
HETATM    1  C   UNL     1     -21.459  -6.150  -4.641  1.00  0.00     0.001 C 
HETATM    2  C   UNL     1     -20.753  -5.169  -5.227  1.00  0.00     0.011 C 
ENDROOT
BRANCH   1   3
HETATM    3  C   UNL     1     -21.303  -6.511  -3.248  1.00  0.00     0.005 C 
HETATM    4  C   UNL     1     -21.924  -7.564  -2.700  1.00  0.00     0.074 C 
BRANCH   4   5
HETATM    5  C   UNL     1     -21.793  -7.814  -1.241  1.00  0.00     0.243 C 
HETATM    6  O   UNL     1     -22.442  -7.134  -0.451  1.00  0.00    -0.268 OA
HETATM    7  N   UNL     1     -20.958  -8.850  -0.863  1.00  0.00    -0.349 N 
HETATM    8  C   UNL     1     -20.051  -9.594  -1.737  1.00  0.00     0.126 C 
HETATM    9  C   UNL     1     -20.920  -9.259   0.539  1.00  0.00     0.126 C 
HETATM   10  C   UNL     1     -20.377 -11.084  -1.685  1.00  0.00     0.020 C 
HETATM   11  C   UNL     1     -20.384 -11.602  -0.244  1.00  0.00     0.003 C 
HETATM   12  C   UNL     1     -21.272 -10.741   0.658  1.00  0.00     0.020 C 
ENDBRANCH   4   5
ENDBRANCH   1   3
BRANCH   2  13
HETATM   13  C   UNL     1     -20.935  -4.725  -6.622  1.00  0.00    -0.033 A 
HETATM   14  C   UNL     1     -19.854  -4.651  -7.532  1.00  0.00     0.014 A 
HETATM   15  C   UNL     1     -20.052  -4.276  -8.867  1.00  0.00     0.040 A 
HETATM   16  C   UNL     1     -21.337  -3.994  -9.269  1.00  0.00     0.105 A 
HETATM   17  C   UNL     1     -22.398  -4.079  -8.402  1.00  0.00     0.105 A 
HETATM   18  O   UNL     1     -21.715  -3.625 -10.523  1.00  0.00    -0.323 OA
HETATM   19  C   UNL     1     -22.232  -4.444  -7.080  1.00  0.00     0.051 A 
HETATM   20  O   UNL     1     -23.581  -3.771  -9.000  1.00  0.00    -0.323 OA
HETATM   21  C   UNL     1     -23.136  -3.461 -10.338  1.00  0.00     0.352 A 
ENDBRANCH   2  13
TORSDOF 3
ENDMDL
MODEL 3
REMARK VINA RESULT:      -8.1      0.977      1.133
REMARK  3 active torsions:
REMARK  status: ('A' for Active; 'I' for Inactive)
REMARK    1  A    between atoms: C_2  and  C_3 
REMARK       I    between atoms: C_2  and  N_16 
REMARK    2  A    between atoms: C_4  and  C_5 
REMARK    3  A    between atoms: C_6  and  C_7 
ROOT
HETATM    1  C   UNL     1     -20.460  -6.907  -4.662  1.00  0.00     0.001 C 
HETATM    2  C   UNL     1     -20.895  -5.676  -4.981  1.00  0.00     0.011 C 
ENDROOT
BRANCH   1   3
HETATM    3  C   UNL     1     -20.596  -7.474  -3.338  1.00  0.00     0.005 C 
HETATM    4  C   UNL     1     -21.776  -7.854  -2.831  1.00  0.00     0.074 C 
BRANCH   4   5
HETATM    5  C   UNL     1     -21.850  -8.336  -1.428  1.00  0.00     0.243 C 
HETATM    6  O   UNL     1     -21.718  -7.536  -0.506  1.00  0.00    -0.268 OA
HETATM    7  N   UNL     1     -22.109  -9.683  -1.249  1.00  0.00    -0.349 N 
HETATM    8  C   UNL     1     -22.128 -10.707  -2.294  1.00  0.00     0.126 C 
HETATM    9  C   UNL     1     -22.366 -10.187   0.097  1.00  0.00     0.126 C 
HETATM   10  C   UNL     1     -23.485 -11.407  -2.317  1.00  0.00     0.020 C 
HETATM   11  C   UNL     1     -23.853 -11.951  -0.934  1.00  0.00     0.003 C 
HETATM   12  C   UNL     1     -23.731 -10.873   0.145  1.00  0.00     0.020 C 
ENDBRANCH   4   5
ENDBRANCH   1   3
BRANCH   2  13
HETATM   13  C   UNL     1     -20.841  -5.093  -6.335  1.00  0.00    -0.033 A 
HETATM   14  C   UNL     1     -19.617  -4.887  -7.013  1.00  0.00     0.014 A 
HETATM   15  C   UNL     1     -19.584  -4.379  -8.318  1.00  0.00     0.040 A 
HETATM   16  C   UNL     1     -20.787  -4.100  -8.925  1.00  0.00     0.105 A 
HETATM   17  C   UNL     1     -21.983  -4.311  -8.286  1.00  0.00     0.105 A 
HETATM   18  O   UNL     1     -20.946  -3.612 -10.185  1.00  0.00    -0.323 OA
HETATM   19  C   UNL     1     -22.045  -4.809  -6.999  1.00  0.00     0.051 A 
HETATM   20  O   UNL     1     -23.050  -3.982  -9.064  1.00  0.00    -0.323 OA
HETATM   21  C   UNL     1     -22.384  -3.516 -10.256  1.00  0.00     0.352 A 
ENDBRANCH   2  13
TORSDOF 3
ENDMDL
MODEL 4
REMARK VINA RESULT:      -7.8      2.900      9.139
REMARK  3 active torsions:
REMARK  status: ('A' for Active; 'I' for Inactive)
REMARK    1  A    between atoms: C_2  and  C_3 
REMARK       I    between atoms: C_2  and  N_16 
REMARK    2  A    between atoms: C_4  and  C_5 
REMARK    3  A    between atoms: C_6  and  C_7 
ROOT
HETATM    1  C   UNL     1     -21.708  -6.720  -3.489  1.00  0.00     0.001 C 
HETATM    2  C   UNL     1     -21.114  -7.565  -2.630  1.00  0.00     0.011 C 
ENDROOT
BRANCH   1   3
HETATM    3  C   UNL     1     -20.970  -5.822  -4.351  1.00  0.00     0.005 C 
HETATM    4  C   UNL     1     -21.168  -5.764  -5.675  1.00  0.00     0.074 C 
BRANCH   4   5
HETATM    5  C   UNL     1     -20.305  -4.889  -6.508  1.00  0.00     0.243 C 
HETATM    6  O   UNL     1     -19.093  -4.868  -6.308  1.00  0.00    -0.268 OA
HETATM    7  N   UNL     1     -20.934  -4.166  -7.505  1.00  0.00    -0.349 N 
HETATM    8  C   UNL     1     -22.379  -4.033  -7.697  1.00  0.00     0.126 C 
HETATM    9  C   UNL     1     -20.125  -3.423  -8.467  1.00  0.00     0.126 C 
HETATM   10  C   UNL     1     -22.769  -4.513  -9.094  1.00  0.00     0.020 C 
HETATM   11  C   UNL     1     -21.949  -3.802 -10.174  1.00  0.00     0.003 C 
HETATM   12  C   UNL     1     -20.448  -3.885  -9.888  1.00  0.00     0.020 C 
ENDBRANCH   4   5
ENDBRANCH   1   3
BRANCH   2  13
HETATM   13  C   UNL     1     -21.828  -8.545  -1.790  1.00  0.00    -0.033 A 
HETATM   14  C   UNL     1     -22.384  -8.193  -0.537  1.00  0.00     0.014 A 
HETATM   15  C   UNL     1     -23.103  -9.121   0.226  1.00  0.00     0.040 A 
HETATM   16  C   UNL     1     -23.263 -10.387  -0.290  1.00  0.00     0.105 A 
HETATM   17  C   UNL     1     -22.744 -10.737  -1.512  1.00  0.00     0.105 A 
HETATM   18  O   UNL     1     -23.935 -11.409   0.305  1.00  0.00    -0.323 OA
HETATM   19  C   UNL     1     -22.029  -9.843  -2.285  1.00  0.00     0.051 A 
HETATM   20  O   UNL     1     -23.024 -12.027  -1.842  1.00  0.00    -0.323 OA
HETATM   21  C   UNL     1     -23.758 -12.453  -0.674  1.00  0.00     0.352 A 
ENDBRANCH   2  13
TORSDOF 3
ENDMDL
MODEL 5
REMARK VINA RESULT:      -7.6      1.779      2.875
REMARK  3 active torsions:
REMARK  status: ('A' for Active; 'I' for Inactive)
REMARK    1  A    between atoms: C_2  and  C_3 
REMARK       I    between atoms: C_2  and  N_16 
REMARK    2  A    between atoms: C_4  and  C_5 
REMARK    3  A    between atoms: C_6  and  C_7 
ROOT
HETATM    1  C   UNL     1     -21.492  -8.260  -4.711  1.00  0.00     0.001 C 
HETATM    2  C   UNL     1     -20.737  -7.226  -5.118  1.00  0.00     0.011 C 
ENDROOT
BRANCH   1   3
HETATM    3  C   UNL     1     -21.118  -9.128  -3.616  1.00  0.00     0.005 C 
HETATM    4  C   UNL     1     -21.955 -10.035  -3.093  1.00  0.00     0.074 C 
BRANCH   4   5
HETATM    5  C   UNL     1     -21.533 -10.822  -1.907  1.00  0.00     0.243 C 
HETATM    6  O   UNL     1     -20.938 -11.884  -2.066  1.00  0.00    -0.268 OA
HETATM    7  N   UNL     1     -21.812 -10.272  -0.668  1.00  0.00    -0.349 N 
HETATM    8  C   UNL     1     -22.642  -9.095  -0.410  1.00  0.00     0.126 C 
HETATM    9  C   UNL     1     -21.273 -10.907   0.532  1.00  0.00     0.126 C 
HETATM   10  C   UNL     1     -21.836  -8.040   0.345  1.00  0.00     0.020 C 
HETATM   11  C   UNL     1     -21.208  -8.624   1.614  1.00  0.00     0.003 C 
HETATM   12  C   UNL     1     -20.426  -9.905   1.316  1.00  0.00     0.020 C 
ENDBRANCH   4   5
ENDBRANCH   1   3
BRANCH   2  13
HETATM   13  C   UNL     1     -21.119  -6.276  -6.180  1.00  0.00    -0.033 A 
HETATM   14  C   UNL     1     -22.318  -5.527  -6.120  1.00  0.00     0.014 A 
HETATM   15  C   UNL     1     -22.643  -4.593  -7.112  1.00  0.00     0.040 A 
HETATM   16  C   UNL     1     -21.748  -4.417  -8.142  1.00  0.00     0.105 A 
HETATM   17  C   UNL     1     -20.573  -5.123  -8.204  1.00  0.00     0.105 A 
HETATM   18  O   UNL     1     -21.893  -3.551  -9.181  1.00  0.00    -0.323 OA
HETATM   19  C   UNL     1     -20.228  -6.052  -7.242  1.00  0.00     0.051 A 
HETATM   20  O   UNL     1     -19.827  -4.792  -9.293  1.00  0.00    -0.323 OA
HETATM   21  C   UNL     1     -20.683  -3.813  -9.920  1.00  0.00     0.352 A 
ENDBRANCH   2  13
TORSDOF 3
ENDMDL
MODEL 6
REMARK VINA RESULT:      -7.4     16.265     17.694
REMARK  3 active torsions:
REMARK  status: ('A' for Active; 'I' for Inactive)
REMARK    1  A    between atoms: C_2  and  C_3 
REMARK       I    between atoms: C_2  and  N_16 
REMARK    2  A    between atoms: C_4  and  C_5 
REMARK    3  A    between atoms: C_6  and  C_7 
ROOT
HETATM    1  C   UNL     1     -21.549   8.709   1.881  1.00  0.00     0.001 C 
HETATM    2  C   UNL     1     -22.849   9.035   1.963  1.00  0.00     0.011 C 
ENDROOT
BRANCH   1   3
HETATM    3  C   UNL     1     -20.588   9.025   2.916  1.00  0.00     0.005 C 
HETATM    4  C   UNL     1     -19.281   8.753   2.798  1.00  0.00     0.074 C 
BRANCH   4   5
HETATM    5  C   UNL     1     -18.372   9.017   3.942  1.00  0.00     0.243 C 
HETATM    6  O   UNL     1     -18.813   8.975   5.087  1.00  0.00    -0.268 OA
HETATM    7  N   UNL     1     -17.045   9.260   3.635  1.00  0.00    -0.349 N 
HETATM    8  C   UNL     1     -16.491   9.470   2.297  1.00  0.00     0.126 C 
HETATM    9  C   UNL     1     -16.068   9.354   4.716  1.00  0.00     0.126 C 
HETATM   10  C   UNL     1     -15.395   8.444   2.017  1.00  0.00     0.020 C 
HETATM   11  C   UNL     1     -14.331   8.452   3.118  1.00  0.00     0.003 C 
HETATM   12  C   UNL     1     -14.959   8.324   4.508  1.00  0.00     0.020 C 
ENDBRANCH   4   5
ENDBRANCH   1   3
BRANCH   2  13
HETATM   13  C   UNL     1     -23.870   8.666   0.964  1.00  0.00    -0.033 A 
HETATM   14  C   UNL     1     -25.245   8.936   1.163  1.00  0.00     0.014 A 
HETATM   15  C   UNL     1     -26.196   8.625   0.183  1.00  0.00     0.040 A 
HETATM   16  C   UNL     1     -25.747   8.060  -0.988  1.00  0.00     0.105 A 
HETATM   17  C   UNL     1     -24.415   7.809  -1.202  1.00  0.00     0.105 A 
HETATM   18  O   UNL     1     -26.522   7.704  -2.047  1.00  0.00    -0.323 OA
HETATM   19  C   UNL     1     -23.455   8.103  -0.252  1.00  0.00     0.051 A 
HETATM   20  O   UNL     1     -24.181   7.259  -2.425  1.00  0.00    -0.323 OA
HETATM   21  C   UNL     1     -25.525   7.173  -2.944  1.00  0.00     0.352 A 
ENDBRANCH   2  13
TORSDOF 3
ENDMDL
MODEL 7
REMARK VINA RESULT:      -7.2      3.872      9.513
REMARK  3 active torsions:
REMARK  status: ('A' for Active; 'I' for Inactive)
REMARK    1  A    between atoms: C_2  and  C_3 
REMARK       I    between atoms: C_2  and  N_16 
REMARK    2  A    between atoms: C_4  and  C_5 
REMARK    3  A    between atoms: C_6  and  C_7 
ROOT
HETATM    1  C   UNL     1     -20.000  -9.473  -4.090  1.00  0.00     0.001 C 
HETATM    2  C   UNL     1     -18.931  -9.069  -3.383  1.00  0.00     0.011 C 
ENDROOT
BRANCH   1   3
HETATM    3  C   UNL     1     -20.858  -8.560  -4.815  1.00  0.00     0.005 C 
HETATM    4  C   UNL     1     -20.791  -7.231  -4.664  1.00  0.00     0.074 C 
BRANCH   4   5
HETATM    5  C   UNL     1     -21.770  -6.363  -5.368  1.00  0.00     0.243 C 
HETATM    6  O   UNL     1     -22.884  -6.189  -4.882  1.00  0.00    -0.268 OA
HETATM    7  N   UNL     1     -21.337  -5.762  -6.536  1.00  0.00    -0.349 N 
HETATM    8  C   UNL     1     -20.086  -6.043  -7.242  1.00  0.00     0.126 C 
HETATM    9  C   UNL     1     -22.185  -4.764  -7.183  1.00  0.00     0.126 C 
HETATM   10  C   UNL     1     -19.265  -4.763  -7.383  1.00  0.00     0.020 C 
HETATM   11  C   UNL     1     -20.085  -3.645  -8.033  1.00  0.00     0.003 C 
HETATM   12  C   UNL     1     -21.426  -3.446  -7.323  1.00  0.00     0.020 C 
ENDBRANCH   4   5
ENDBRANCH   1   3
BRANCH   2  13
HETATM   13  C   UNL     1     -17.994  -9.974  -2.692  1.00  0.00    -0.033 A 
HETATM   14  C   UNL     1     -16.591  -9.828  -2.805  1.00  0.00     0.014 A 
HETATM   15  C   UNL     1     -15.713 -10.664  -2.104  1.00  0.00     0.040 A 
HETATM   16  C   UNL     1     -16.262 -11.627  -1.288  1.00  0.00     0.105 A 
HETATM   17  C   UNL     1     -17.621 -11.769  -1.155  1.00  0.00     0.105 A 
HETATM   18  O   UNL     1     -15.567 -12.516  -0.529  1.00  0.00    -0.323 OA
HETATM   19  C   UNL     1     -18.510 -10.960  -1.837  1.00  0.00     0.051 A 
HETATM   20  O   UNL     1     -17.955 -12.769  -0.295  1.00  0.00    -0.323 OA
HETATM   21  C   UNL     1     -16.648 -13.254   0.079  1.00  0.00     0.352 A 
ENDBRANCH   2  13
TORSDOF 3
ENDMDL
MODEL 8
REMARK VINA RESULT:      -7.0      4.948      8.462
REMARK  3 active torsions:
REMARK  status: ('A' for Active; 'I' for Inactive)
REMARK    1  A    between atoms: C_2  and  C_3 
REMARK       I    between atoms: C_2  and  N_16 
REMARK    2  A    between atoms: C_4  and  C_5 
REMARK    3  A    between atoms: C_6  and  C_7 
ROOT
HETATM    1  C   UNL     1     -22.194 -11.973   0.381  1.00  0.00     0.001 C 
HETATM    2  C   UNL     1     -21.413 -10.884   0.475  1.00  0.00     0.011 C 
ENDROOT
BRANCH   1   3
HETATM    3  C   UNL     1     -21.898 -13.218   1.056  1.00  0.00     0.005 C 
HETATM    4  C   UNL     1     -22.667 -13.709   2.037  1.00  0.00     0.074 C 
BRANCH   4   5
HETATM    5  C   UNL     1     -22.246 -14.942   2.750  1.00  0.00     0.243 C 
HETATM    6  O   UNL     1     -21.062 -15.267   2.749  1.00  0.00    -0.268 OA
HETATM    7  N   UNL     1     -23.237 -15.640   3.418  1.00  0.00    -0.349 N 
HETATM    8  C   UNL     1     -24.676 -15.391   3.336  1.00  0.00     0.126 C 
HETATM    9  C   UNL     1     -22.864 -16.759   4.280  1.00  0.00     0.126 C 
HETATM   10  C   UNL     1     -25.240 -15.109   4.727  1.00  0.00     0.020 C 
HETATM   11  C   UNL     1     -24.876 -16.224   5.711  1.00  0.00     0.003 C 
HETATM   12  C   UNL     1     -23.374 -16.517   5.699  1.00  0.00     0.020 C 
ENDBRANCH   4   5
ENDBRANCH   1   3
BRANCH   2  13
HETATM   13  C   UNL     1     -21.719  -9.578  -0.139  1.00  0.00    -0.033 A 
HETATM   14  C   UNL     1     -22.514  -8.609   0.519  1.00  0.00     0.014 A 
HETATM   15  C   UNL     1     -22.755  -7.354  -0.055  1.00  0.00     0.040 A 
HETATM   16  C   UNL     1     -22.180  -7.088  -1.276  1.00  0.00     0.105 A 
HETATM   17  C   UNL     1     -21.392  -8.012  -1.918  1.00  0.00     0.105 A 
HETATM   18  O   UNL     1     -22.296  -5.926  -1.973  1.00  0.00    -0.323 OA
HETATM   19  C   UNL     1     -21.140  -9.258  -1.376  1.00  0.00     0.051 A 
HETATM   20  O   UNL     1     -20.913  -7.548  -3.104  1.00  0.00    -0.323 OA
HETATM   21  C   UNL     1     -21.511  -6.235  -3.143  1.00  0.00     0.352 A 
ENDBRANCH   2  13
TORSDOF 3
ENDMDL
MODEL 9
REMARK VINA RESULT:      -6.9      4.805      9.427
REMARK  3 active torsions:
REMARK  status: ('A' for Active; 'I' for Inactive)
REMARK    1  A    between atoms: C_2  and  C_3 
REMARK       I    between atoms: C_2  and  N_16 
REMARK    2  A    between atoms: C_4  and  C_5 
REMARK    3  A    between atoms: C_6  and  C_7 
ROOT
HETATM    1  C   UNL     1     -19.488  -9.322  -4.088  1.00  0.00     0.001 C 
HETATM    2  C   UNL     1     -18.187  -9.312  -4.425  1.00  0.00     0.011 C 
ENDROOT
BRANCH   1   3
HETATM    3  C   UNL     1     -20.478  -8.489  -4.735  1.00  0.00     0.005 C 
HETATM    4  C   UNL     1     -20.413  -7.150  -4.729  1.00  0.00     0.074 C 
BRANCH   4   5
HETATM    5  C   UNL     1     -21.518  -6.360  -5.329  1.00  0.00     0.243 C 
HETATM    6  O   UNL     1     -22.585  -6.260  -4.730  1.00  0.00    -0.268 OA
HETATM    7  N   UNL     1     -21.251  -5.741  -6.537  1.00  0.00    -0.349 N 
HETATM    8  C   UNL     1     -20.063  -5.941  -7.368  1.00  0.00     0.126 C 
HETATM    9  C   UNL     1     -22.230  -4.811  -7.095  1.00  0.00     0.126 C 
HETATM   10  C   UNL     1     -19.353  -4.608  -7.597  1.00  0.00     0.020 C 
HETATM   11  C   UNL     1     -20.313  -3.557  -8.160  1.00  0.00     0.003 C 
HETATM   12  C   UNL     1     -21.584  -3.444  -7.315  1.00  0.00     0.020 C 
ENDBRANCH   4   5
ENDBRANCH   1   3
BRANCH   2  13
HETATM   13  C   UNL     1     -17.163 -10.197  -3.840  1.00  0.00    -0.033 A 
HETATM   14  C   UNL     1     -17.243 -10.653  -2.502  1.00  0.00     0.014 A 
HETATM   15  C   UNL     1     -16.289 -11.534  -1.976  1.00  0.00     0.040 A 
HETATM   16  C   UNL     1     -15.278 -11.954  -2.809  1.00  0.00     0.105 A 
HETATM   17  C   UNL     1     -15.198 -11.534  -4.113  1.00  0.00     0.105 A 
HETATM   18  O   UNL     1     -14.276 -12.811  -2.474  1.00  0.00    -0.323 OA
HETATM   19  C   UNL     1     -16.122 -10.664  -4.658  1.00  0.00     0.051 A 
HETATM   20  O   UNL     1     -14.132 -12.073  -4.766  1.00  0.00    -0.323 OA
HETATM   21  C   UNL     1     -13.539 -12.861  -3.713  1.00  0.00     0.352 A 
ENDBRANCH   2  13
TORSDOF 3
ENDMDL
