MODEL 1
REMARK VINA RESULT:      -8.5      0.000      0.000
REMARK  3 active torsions:
REMARK  status: ('A' for Active; 'I' for Inactive)
REMARK    1  A    between atoms: C_2  and  C_5 
REMARK    2  A    between atoms: C_8  and  N_9 
REMARK       I    between atoms: N_9  and  C_10 
REMARK       I    between atoms: C_10  and  N_12 
REMARK    3  A    between atoms: N_15  and  C_16 
ROOT
HETATM    1  N   UNL     1     -22.272  -6.184  -4.963  1.00  0.00    -0.309 N 
HETATM    2  C   UNL     1     -21.306  -5.753  -5.841  1.00  0.00     0.323 C 
HETATM    3  O   UNL     1     -20.101  -5.950  -5.693  1.00  0.00    -0.247 OA
HETATM    4  N   UNL     1     -21.772  -5.080  -6.958  1.00  0.00    -0.331 N 
HETATM    5  C   UNL     1     -23.163  -4.686  -7.261  1.00  0.00     0.147 C 
HETATM    6  C   UNL     1     -23.509  -5.013  -8.725  1.00  0.00     0.144 C 
HETATM    7  N   UNL     1     -22.533  -4.346  -9.583  1.00  0.00    -0.363 N 
HETATM    8  C   UNL     1     -21.151  -4.799  -9.372  1.00  0.00     0.144 C 
HETATM    9  C   UNL     1     -20.772  -4.536  -7.900  1.00  0.00     0.147 C 
HETATM   10  H   UNL     1     -23.225  -6.157  -5.270  1.00  0.00     0.170 HD
ENDROOT
BRANCH   1  11
HETATM   11  C   UNL     1     -22.064  -6.867  -3.748  1.00  0.00     0.036 A 
HETATM   12  C   UNL     1     -21.669  -8.192  -3.672  1.00  0.00     0.030 A 
HETATM   13  C   UNL     1     -21.533  -8.823  -2.434  1.00  0.00     0.010 A 
HETATM   14  C   UNL     1     -21.756  -8.141  -1.228  1.00  0.00    -0.051 A 
HETATM   15  C   UNL     1     -22.139  -6.793  -1.321  1.00  0.00     0.010 A 
HETATM   16  C   UNL     1     -22.279  -6.159  -2.562  1.00  0.00     0.030 A 
BRANCH  14  17
HETATM   17  C   UNL     1     -21.640  -8.870   0.120  1.00  0.00    -0.024 C 
HETATM   18  C   UNL     1     -22.961  -9.574   0.510  1.00  0.00     0.019 C 
HETATM   19  C   UNL     1     -21.297  -7.834   1.207  1.00  0.00     0.019 C 
HETATM   20  C   UNL     1     -20.547  -9.961   0.117  1.00  0.00     0.019 C 
ENDBRANCH  14  17
ENDBRANCH   1  11
BRANCH   7  21
HETATM   21  C   UNL     1     -22.839  -3.549 -10.655  1.00  0.00     0.125 A 
HETATM   22  N   UNL     1     -24.116  -3.643 -11.116  1.00  0.00    -0.351 N 
HETATM   23  C   UNL     1     -24.490  -2.913 -12.188  1.00  0.00     0.090 A 
ATOM     24  HN  UNL     1     -24.784  -4.259 -10.654  1.00  0.00     0.166 HD
HETATM   25  C   UNL     1     -23.649  -2.053 -12.863  1.00  0.00     0.019 A 
HETATM   26  C   UNL     1     -22.340  -1.953 -12.416  1.00  0.00     0.029 A 
HETATM   27  C   UNL     1     -21.921  -2.710 -11.319  1.00  0.00     0.077 A 
HETATM   28 CL   UNL     1     -20.224  -2.637 -10.966  1.00  0.00    -0.080 Cl
ENDBRANCH   7  21
TORSDOF 3
ENDMDL
MODEL 2
REMARK VINA RESULT:      -8.3      4.729     11.129
REMARK  3 active torsions:
REMARK  status: ('A' for Active; 'I' for Inactive)
REMARK    1  A    between atoms: C_2  and  C_5 
REMARK    2  A    between atoms: C_8  and  N_9 
REMARK       I    between atoms: N_9  and  C_10 
REMARK       I    between atoms: C_10  and  N_12 
REMARK    3  A    between atoms: N_15  and  C_16 
ROOT
HETATM    1  N   UNL     1     -21.438  -8.595  -3.848  1.00  0.00    -0.309 N 
HETATM    2  C   UNL     1     -21.045  -8.579  -2.531  1.00  0.00     0.323 C 
HETATM    3  O   UNL     1     -20.561  -7.600  -1.966  1.00  0.00    -0.247 OA
HETATM    4  N   UNL     1     -21.248  -9.759  -1.834  1.00  0.00    -0.331 N 
HETATM    5  C   UNL     1     -21.739 -11.048  -2.361  1.00  0.00     0.147 C 
HETATM    6  C   UNL     1     -22.801 -11.646  -1.422  1.00  0.00     0.144 C 
HETATM    7  N   UNL     1     -22.214 -11.766  -0.090  1.00  0.00    -0.363 N 
HETATM    8  C   UNL     1     -21.814 -10.481   0.501  1.00  0.00     0.144 C 
HETATM    9  C   UNL     1     -20.781  -9.818  -0.433  1.00  0.00     0.147 C 
HETATM   10  H   UNL     1     -22.004  -9.362  -4.156  1.00  0.00     0.170 HD
ENDROOT
BRANCH   1  11
HETATM   11  C   UNL     1     -21.320  -7.541  -4.776  1.00  0.00     0.036 A 
HETATM   12  C   UNL     1     -22.321  -6.614  -5.014  1.00  0.00     0.030 A 
HETATM   13  C   UNL     1     -22.158  -5.626  -5.987  1.00  0.00     0.010 A 
HETATM   14  C   UNL     1     -20.976  -5.512  -6.734  1.00  0.00    -0.051 A 
HETATM   15  C   UNL     1     -19.963  -6.448  -6.469  1.00  0.00     0.010 A 
HETATM   16  C   UNL     1     -20.126  -7.442  -5.495  1.00  0.00     0.030 A 
BRANCH  14  17
HETATM   17  C   UNL     1     -20.837  -4.442  -7.829  1.00  0.00    -0.024 C 
HETATM   18  C   UNL     1     -19.357  -4.184  -8.199  1.00  0.00     0.019 C 
HETATM   19  C   UNL     1     -21.448  -3.127  -7.307  1.00  0.00     0.019 C 
HETATM   20  C   UNL     1     -21.554  -4.833  -9.139  1.00  0.00     0.019 C 
ENDBRANCH  14  17
ENDBRANCH   1  11
BRANCH   7  21
HETATM   21  C   UNL     1     -22.228 -12.901   0.679  1.00  0.00     0.125 A 
HETATM   22  N   UNL     1     -23.353 -13.100   1.419  1.00  0.00    -0.351 N 
HETATM   23  C   UNL     1     -23.435 -14.178   2.227  1.00  0.00     0.090 A 
ATOM     24  HN  UNL     1     -24.128 -12.439   1.363  1.00  0.00     0.166 HD
HETATM   25  C   UNL     1     -22.435 -15.119   2.354  1.00  0.00     0.019 A 
HETATM   26  C   UNL     1     -21.275 -14.928   1.618  1.00  0.00     0.029 A 
HETATM   27  C   UNL     1     -21.156 -13.811   0.787  1.00  0.00     0.077 A 
HETATM   28 CL   UNL     1     -19.599 -13.584   0.058  1.00  0.00    -0.080 Cl
ENDBRANCH   7  21
TORSDOF 3
ENDMDL
MODEL 3
REMARK VINA RESULT:      -8.2     17.742     19.766
REMARK  3 active torsions:
REMARK  status: ('A' for Active; 'I' for Inactive)
REMARK    1  A    between atoms: C_2  and  C_5 
REMARK    2  A    between atoms: C_8  and  N_9 
REMARK       I    between atoms: N_9  and  C_10 
REMARK       I    between atoms: C_10  and  N_12 
REMARK    3  A    between atoms: N_15  and  C_16 
ROOT
HETATM    1  N   UNL     1     -21.635   9.262   2.833  1.00  0.00    -0.309 N 
HETATM    2  C   UNL     1     -20.593  10.066   2.436  1.00  0.00     0.323 C 
HETATM    3  O   UNL     1     -20.692  10.964   1.602  1.00  0.00    -0.247 OA
HETATM    4  N   UNL     1     -19.381   9.823   3.062  1.00  0.00    -0.331 N 
HETATM    5  C   UNL     1     -19.058   8.747   4.020  1.00  0.00     0.147 C 
HETATM    6  C   UNL     1     -18.260   9.307   5.211  1.00  0.00     0.144 C 
HETATM    7  N   UNL     1     -17.071   9.975   4.688  1.00  0.00    -0.363 N 
HETATM    8  C   UNL     1     -17.368  11.118   3.814  1.00  0.00     0.144 C 
HETATM    9  C   UNL     1     -18.212  10.613   2.625  1.00  0.00     0.147 C 
HETATM   10  H   UNL     1     -21.507   8.706   3.656  1.00  0.00     0.170 HD
ENDROOT
BRANCH   1  11
HETATM   11  C   UNL     1     -22.955   9.287   2.339  1.00  0.00     0.036 A 
HETATM   12  C   UNL     1     -24.021   9.842   3.028  1.00  0.00     0.030 A 
HETATM   13  C   UNL     1     -25.313   9.784   2.503  1.00  0.00     0.010 A 
HETATM   14  C   UNL     1     -25.579   9.199   1.256  1.00  0.00    -0.051 A 
HETATM   15  C   UNL     1     -24.486   8.657   0.560  1.00  0.00     0.010 A 
HETATM   16  C   UNL     1     -23.189   8.711   1.087  1.00  0.00     0.030 A 
BRANCH  14  17
HETATM   17  C   UNL     1     -27.017   9.112   0.719  1.00  0.00    -0.024 C 
HETATM   18  C   UNL     1     -27.949   8.348   1.689  1.00  0.00     0.019 C 
HETATM   19  C   UNL     1     -26.991   8.364  -0.628  1.00  0.00     0.019 C 
HETATM   20  C   UNL     1     -27.657  10.500   0.499  1.00  0.00     0.019 C 
ENDBRANCH  14  17
ENDBRANCH   1  11
BRANCH   7  21
HETATM   21  C   UNL     1     -15.788   9.756   5.120  1.00  0.00     0.125 A 
HETATM   22  N   UNL     1     -15.457  10.336   6.305  1.00  0.00    -0.351 N 
HETATM   23  C   UNL     1     -14.204  10.195   6.788  1.00  0.00     0.090 A 
ATOM     24  HN  UNL     1     -16.151  10.874   6.826  1.00  0.00     0.166 HD
HETATM   25  C   UNL     1     -13.213   9.481   6.149  1.00  0.00     0.019 A 
HETATM   26  C   UNL     1     -13.527   8.892   4.933  1.00  0.00     0.029 A 
HETATM   27  C   UNL     1     -14.811   9.037   4.402  1.00  0.00     0.077 A 
HETATM   28 CL   UNL     1     -15.032   8.412   2.800  1.00  0.00    -0.080 Cl
ENDBRANCH   7  21
TORSDOF 3
ENDMDL
MODEL 4
REMARK VINA RESULT:      -7.5     16.657     18.942
REMARK  3 active torsions:
REMARK  status: ('A' for Active; 'I' for Inactive)
REMARK    1  A    between atoms: C_2  and  C_5 
REMARK    2  A    between atoms: C_8  and  N_9 
REMARK       I    between atoms: N_9  and  C_10 
REMARK       I    between atoms: C_10  and  N_12 
REMARK    3  A    between atoms: N_15  and  C_16 
ROOT
HETATM    1  N   UNL     1     -22.622   8.498   1.072  1.00  0.00    -0.309 N 
HETATM    2  C   UNL     1     -21.908   9.629   1.391  1.00  0.00     0.323 C 
HETATM    3  O   UNL     1     -22.211  10.763   1.025  1.00  0.00    -0.247 OA
HETATM    4  N   UNL     1     -20.799   9.426   2.195  1.00  0.00    -0.331 N 
HETATM    5  C   UNL     1     -20.242   8.140   2.662  1.00  0.00     0.147 C 
HETATM    6  C   UNL     1     -19.894   8.214   4.159  1.00  0.00     0.144 C 
HETATM    7  N   UNL     1     -18.976   9.333   4.358  1.00  0.00    -0.363 N 
HETATM    8  C   UNL     1     -19.546  10.639   4.000  1.00  0.00     0.144 C 
HETATM    9  C   UNL     1     -19.957  10.598   2.513  1.00  0.00     0.147 C 
HETATM   10  H   UNL     1     -22.418   7.659   1.581  1.00  0.00     0.170 HD
ENDROOT
BRANCH   1  11
HETATM   11  C   UNL     1     -23.769   8.427   0.255  1.00  0.00     0.036 A 
HETATM   12  C   UNL     1     -23.747   7.996  -1.061  1.00  0.00     0.030 A 
HETATM   13  C   UNL     1     -24.912   8.002  -1.830  1.00  0.00     0.010 A 
HETATM   14  C   UNL     1     -26.146   8.409  -1.298  1.00  0.00    -0.051 A 
HETATM   15  C   UNL     1     -26.156   8.826   0.043  1.00  0.00     0.010 A 
HETATM   16  C   UNL     1     -24.986   8.824   0.815  1.00  0.00     0.030 A 
BRANCH  14  17
HETATM   17  C   UNL     1     -27.406   8.446  -2.177  1.00  0.00    -0.024 C 
HETATM   18  C   UNL     1     -27.388   7.340  -3.259  1.00  0.00     0.019 C 
HETATM   19  C   UNL     1     -27.473   9.816  -2.878  1.00  0.00     0.019 C 
HETATM   20  C   UNL     1     -28.706   8.243  -1.367  1.00  0.00     0.019 C 
ENDBRANCH  14  17
ENDBRANCH   1  11
BRANCH   7  21
HETATM   21  C   UNL     1     -17.782   9.265   5.029  1.00  0.00     0.125 A 
HETATM   22  N   UNL     1     -17.846   9.484   6.370  1.00  0.00    -0.351 N 
HETATM   23  C   UNL     1     -16.711   9.465   7.101  1.00  0.00     0.090 A 
ATOM     24  HN  UNL     1     -18.744   9.662   6.820  1.00  0.00     0.166 HD
HETATM   25  C   UNL     1     -15.461   9.228   6.570  1.00  0.00     0.019 A 
HETATM   26  C   UNL     1     -15.374   9.014   5.203  1.00  0.00     0.029 A 
HETATM   27  C   UNL     1     -16.530   9.045   4.420  1.00  0.00     0.077 A 
HETATM   28 CL   UNL     1     -16.276   8.944   2.707  1.00  0.00    -0.080 Cl
ENDBRANCH   7  21
TORSDOF 3
ENDMDL
MODEL 5
REMARK VINA RESULT:      -7.3      7.195     10.637
REMARK  3 active torsions:
REMARK  status: ('A' for Active; 'I' for Inactive)
REMARK    1  A    between atoms: C_2  and  C_5 
REMARK    2  A    between atoms: C_8  and  N_9 
REMARK       I    between atoms: N_9  and  C_10 
REMARK       I    between atoms: C_10  and  N_12 
REMARK    3  A    between atoms: N_15  and  C_16 
ROOT
HETATM    1  N   UNL     1     -19.691 -13.045  -6.377  1.00  0.00    -0.309 N 
HETATM    2  C   UNL     1     -18.957 -12.374  -5.428  1.00  0.00     0.323 C 
HETATM    3  O   UNL     1     -17.729 -12.380  -5.372  1.00  0.00    -0.247 OA
HETATM    4  N   UNL     1     -19.695 -11.641  -4.513  1.00  0.00    -0.331 N 
HETATM    5  C   UNL     1     -21.164 -11.579  -4.378  1.00  0.00     0.147 C 
HETATM    6  C   UNL     1     -21.628 -10.122  -4.196  1.00  0.00     0.144 C 
HETATM    7  N   UNL     1     -20.930  -9.564  -3.041  1.00  0.00    -0.363 N 
HETATM    8  C   UNL     1     -19.469  -9.518  -3.195  1.00  0.00     0.144 C 
HETATM    9  C   UNL     1     -18.960 -10.955  -3.430  1.00  0.00     0.147 C 
HETATM   10  H   UNL     1     -20.661 -12.814  -6.465  1.00  0.00     0.170 HD
ENDROOT
BRANCH   1  11
HETATM   11  C   UNL     1     -19.188 -13.874  -7.401  1.00  0.00     0.036 A 
HETATM   12  C   UNL     1     -19.171 -15.257  -7.327  1.00  0.00     0.030 A 
HETATM   13  C   UNL     1     -18.609 -16.016  -8.355  1.00  0.00     0.010 A 
HETATM   14  C   UNL     1     -18.074 -15.420  -9.507  1.00  0.00    -0.051 A 
HETATM   15  C   UNL     1     -18.114 -14.017  -9.575  1.00  0.00     0.010 A 
HETATM   16  C   UNL     1     -18.675 -13.253  -8.543  1.00  0.00     0.030 A 
BRANCH  14  17
HETATM   17  C   UNL     1     -17.423 -16.275 -10.605  1.00  0.00    -0.024 C 
HETATM   18  C   UNL     1     -18.455 -17.179 -11.320  1.00  0.00     0.019 C 
HETATM   19  C   UNL     1     -16.351 -17.172  -9.956  1.00  0.00     0.019 C 
HETATM   20  C   UNL     1     -16.751 -15.424 -11.706  1.00  0.00     0.019 C 
ENDBRANCH  14  17
ENDBRANCH   1  11
BRANCH   7  21
HETATM   21  C   UNL     1     -21.530  -8.915  -1.993  1.00  0.00     0.125 A 
HETATM   22  N   UNL     1     -21.960  -9.708  -0.975  1.00  0.00    -0.351 N 
HETATM   23  C   UNL     1     -22.589  -9.151   0.082  1.00  0.00     0.090 A 
ATOM     24  HN  UNL     1     -21.808 -10.717  -1.009  1.00  0.00     0.166 HD
HETATM   25  C   UNL     1     -22.827  -7.799   0.206  1.00  0.00     0.019 A 
HETATM   26  C   UNL     1     -22.408  -6.975  -0.827  1.00  0.00     0.029 A 
HETATM   27  C   UNL     1     -21.770  -7.527  -1.940  1.00  0.00     0.077 A 
HETATM   28 CL   UNL     1     -21.454  -6.426  -3.243  1.00  0.00    -0.080 Cl
ENDBRANCH   7  21
TORSDOF 3
ENDMDL
MODEL 6
REMARK VINA RESULT:      -7.1      8.884     12.786
REMARK  3 active torsions:
REMARK  status: ('A' for Active; 'I' for Inactive)
REMARK    1  A    between atoms: C_2  and  C_5 
REMARK    2  A    between atoms: C_8  and  N_9 
REMARK       I    between atoms: N_9  and  C_10 
REMARK       I    between atoms: C_10  and  N_12 
REMARK    3  A    between atoms: N_15  and  C_16 
ROOT
HETATM    1  N   UNL     1     -14.278 -13.432   0.703  1.00  0.00    -0.309 N 
HETATM    2  C   UNL     1     -14.818 -13.405  -0.562  1.00  0.00     0.323 C 
HETATM    3  O   UNL     1     -14.311 -13.951  -1.540  1.00  0.00    -0.247 OA
HETATM    4  N   UNL     1     -16.019 -12.728  -0.683  1.00  0.00    -0.331 N 
HETATM    5  C   UNL     1     -16.729 -11.953   0.355  1.00  0.00     0.147 C 
HETATM    6  C   UNL     1     -18.231 -12.291   0.347  1.00  0.00     0.144 C 
HETATM    7  N   UNL     1     -18.747 -12.042  -0.997  1.00  0.00    -0.363 N 
HETATM    8  C   UNL     1     -18.128 -12.879  -2.034  1.00  0.00     0.144 C 
HETATM    9  C   UNL     1     -16.609 -12.611  -2.033  1.00  0.00     0.147 C 
HETATM   10  H   UNL     1     -14.861 -13.141   1.464  1.00  0.00     0.170 HD
ENDROOT
BRANCH   1  11
HETATM   11  C   UNL     1     -13.062 -14.030   1.089  1.00  0.00     0.036 A 
HETATM   12  C   UNL     1     -12.982 -15.229   1.779  1.00  0.00     0.030 A 
HETATM   13  C   UNL     1     -11.744 -15.738   2.177  1.00  0.00     0.010 A 
HETATM   14  C   UNL     1     -10.542 -15.082   1.870  1.00  0.00    -0.051 A 
HETATM   15  C   UNL     1     -10.638 -13.878   1.155  1.00  0.00     0.010 A 
HETATM   16  C   UNL     1     -11.879 -13.363   0.757  1.00  0.00     0.030 A 
BRANCH  14  17
HETATM   17  C   UNL     1      -9.195 -15.642   2.356  1.00  0.00    -0.024 C 
HETATM   18  C   UNL     1      -8.911 -15.263   3.829  1.00  0.00     0.019 C 
HETATM   19  C   UNL     1      -8.076 -15.056   1.474  1.00  0.00     0.019 C 
HETATM   20  C   UNL     1      -9.127 -17.183   2.280  1.00  0.00     0.019 C 
ENDBRANCH  14  17
ENDBRANCH   1  11
BRANCH   7  21
HETATM   21  C   UNL     1     -19.857 -11.293  -1.290  1.00  0.00     0.125 A 
HETATM   22  N   UNL     1     -21.046 -11.817  -0.888  1.00  0.00    -0.351 N 
HETATM   23  C   UNL     1     -22.191 -11.157  -1.165  1.00  0.00     0.090 A 
ATOM     24  HN  UNL     1     -21.073 -12.703  -0.382  1.00  0.00     0.166 HD
HETATM   25  C   UNL     1     -22.239  -9.955  -1.839  1.00  0.00     0.019 A 
HETATM   26  C   UNL     1     -21.038  -9.410  -2.267  1.00  0.00     0.029 A 
HETATM   27  C   UNL     1     -19.840 -10.081  -2.010  1.00  0.00     0.077 A 
HETATM   28 CL   UNL     1     -18.427  -9.397  -2.748  1.00  0.00    -0.080 Cl
ENDBRANCH   7  21
TORSDOF 3
ENDMDL
MODEL 7
REMARK VINA RESULT:      -6.9      4.923     11.237
REMARK  3 active torsions:
REMARK  status: ('A' for Active; 'I' for Inactive)
REMARK    1  A    between atoms: C_2  and  C_5 
REMARK    2  A    between atoms: C_8  and  N_9 
REMARK       I    between atoms: N_9  and  C_10 
REMARK       I    between atoms: C_10  and  N_12 
REMARK    3  A    between atoms: N_15  and  C_16 
ROOT
HETATM    1  N   UNL     1     -20.075  -8.234  -4.125  1.00  0.00    -0.309 N 
HETATM    2  C   UNL     1     -20.599  -8.547  -2.893  1.00  0.00     0.323 C 
HETATM    3  O   UNL     1     -21.603  -8.022  -2.416  1.00  0.00    -0.247 OA
HETATM    4  N   UNL     1     -19.930  -9.539  -2.196  1.00  0.00    -0.331 N 
HETATM    5  C   UNL     1     -18.674 -10.219  -2.572  1.00  0.00     0.147 C 
HETATM    6  C   UNL     1     -18.798 -11.738  -2.353  1.00  0.00     0.144 C 
HETATM    7  N   UNL     1     -19.170 -11.968  -0.960  1.00  0.00    -0.363 N 
HETATM    8  C   UNL     1     -20.469 -11.389  -0.589  1.00  0.00     0.144 C 
HETATM    9  C   UNL     1     -20.410  -9.867  -0.838  1.00  0.00     0.147 C 
HETATM   10  H   UNL     1     -19.388  -8.853  -4.510  1.00  0.00     0.170 HD
ENDROOT
BRANCH   1  11
HETATM   11  C   UNL     1     -20.549  -7.252  -5.019  1.00  0.00     0.036 A 
HETATM   12  C   UNL     1     -21.811  -6.686  -4.936  1.00  0.00     0.030 A 
HETATM   13  C   UNL     1     -22.236  -5.757  -5.888  1.00  0.00     0.010 A 
HETATM   14  C   UNL     1     -21.403  -5.339  -6.936  1.00  0.00    -0.051 A 
HETATM   15  C   UNL     1     -20.121  -5.908  -6.997  1.00  0.00     0.010 A 
HETATM   16  C   UNL     1     -19.693  -6.843  -6.045  1.00  0.00     0.030 A 
BRANCH  14  17
HETATM   17  C   UNL     1     -21.910  -4.346  -7.995  1.00  0.00    -0.024 C 
HETATM   18  C   UNL     1     -21.243  -4.581  -9.371  1.00  0.00     0.019 C 
HETATM   19  C   UNL     1     -21.576  -2.918  -7.525  1.00  0.00     0.019 C 
HETATM   20  C   UNL     1     -23.434  -4.446  -8.225  1.00  0.00     0.019 C 
ENDBRANCH  14  17
ENDBRANCH   1  11
BRANCH   7  21
HETATM   21  C   UNL     1     -18.532 -12.829  -0.104  1.00  0.00     0.125 A 
HETATM   22  N   UNL     1     -17.421 -12.337   0.508  1.00  0.00    -0.351 N 
HETATM   23  C   UNL     1     -16.717 -13.130   1.344  1.00  0.00     0.090 A 
ATOM     24  HN  UNL     1     -17.121 -11.377   0.336  1.00  0.00     0.166 HD
HETATM   25  C   UNL     1     -17.058 -14.434   1.632  1.00  0.00     0.019 A 
HETATM   26  C   UNL     1     -18.181 -14.957   1.009  1.00  0.00     0.029 A 
HETATM   27  C   UNL     1     -18.918 -14.165   0.126  1.00  0.00     0.077 A 
HETATM   28 CL   UNL     1     -20.190 -14.980  -0.726  1.00  0.00    -0.080 Cl
ENDBRANCH   7  21
TORSDOF 3
ENDMDL
MODEL 8
REMARK VINA RESULT:      -6.9      9.586     14.382
REMARK  3 active torsions:
REMARK  status: ('A' for Active; 'I' for Inactive)
REMARK    1  A    between atoms: C_2  and  C_5 
REMARK    2  A    between atoms: C_8  and  N_9 
REMARK       I    between atoms: N_9  and  C_10 
REMARK       I    between atoms: C_10  and  N_12 
REMARK    3  A    between atoms: N_15  and  C_16 
ROOT
HETATM    1  N   UNL     1     -17.380 -13.076   0.137  1.00  0.00    -0.309 N 
HETATM    2  C   UNL     1     -16.520 -13.702  -0.734  1.00  0.00     0.323 C 
HETATM    3  O   UNL     1     -16.744 -13.857  -1.933  1.00  0.00    -0.247 OA
HETATM    4  N   UNL     1     -15.332 -14.149  -0.181  1.00  0.00    -0.331 N 
HETATM    5  C   UNL     1     -14.928 -14.121   1.239  1.00  0.00     0.147 C 
HETATM    6  C   UNL     1     -13.479 -13.621   1.379  1.00  0.00     0.144 C 
HETATM    7  N   UNL     1     -12.622 -14.477   0.564  1.00  0.00    -0.363 N 
HETATM    8  C   UNL     1     -12.937 -14.439  -0.872  1.00  0.00     0.144 C 
HETATM    9  C   UNL     1     -14.401 -14.888  -1.059  1.00  0.00     0.147 C 
HETATM   10  H   UNL     1     -17.024 -12.817   1.037  1.00  0.00     0.170 HD
ENDROOT
BRANCH   1  11
HETATM   11  C   UNL     1     -18.654 -12.554  -0.164  1.00  0.00     0.036 A 
HETATM   12  C   UNL     1     -18.855 -11.388  -0.884  1.00  0.00     0.030 A 
HETATM   13  C   UNL     1     -20.144 -10.899  -1.100  1.00  0.00     0.010 A 
HETATM   14  C   UNL     1     -21.280 -11.577  -0.631  1.00  0.00    -0.051 A 
HETATM   15  C   UNL     1     -21.062 -12.767   0.083  1.00  0.00     0.010 A 
HETATM   16  C   UNL     1     -19.768 -13.257   0.304  1.00  0.00     0.030 A 
BRANCH  14  17
HETATM   17  C   UNL     1     -22.687 -10.996  -0.845  1.00  0.00    -0.024 C 
HETATM   18  C   UNL     1     -23.123 -11.073  -2.327  1.00  0.00     0.019 C 
HETATM   19  C   UNL     1     -22.676  -9.517  -0.414  1.00  0.00     0.019 C 
HETATM   20  C   UNL     1     -23.769 -11.738  -0.031  1.00  0.00     0.019 C 
ENDBRANCH  14  17
ENDBRANCH   1  11
BRANCH   7  21
HETATM   21  C   UNL     1     -11.475 -15.090   0.999  1.00  0.00     0.125 A 
HETATM   22  N   UNL     1     -11.568 -16.431   1.213  1.00  0.00    -0.351 N 
HETATM   23  C   UNL     1     -10.492 -17.106   1.671  1.00  0.00     0.090 A 
ATOM     24  HN  UNL     1     -12.443 -16.922   1.029  1.00  0.00     0.166 HD
HETATM   25  C   UNL     1      -9.274 -16.518   1.938  1.00  0.00     0.019 A 
HETATM   26  C   UNL     1      -9.163 -15.150   1.737  1.00  0.00     0.029 A 
HETATM   27  C   UNL     1     -10.266 -14.424   1.281  1.00  0.00     0.077 A 
HETATM   28 CL   UNL     1     -10.061 -12.702   1.240  1.00  0.00    -0.080 Cl
ENDBRANCH   7  21
TORSDOF 3
ENDMDL
MODEL 9
REMARK VINA RESULT:      -6.8     10.441     13.558
REMARK  3 active torsions:
REMARK  status: ('A' for Active; 'I' for Inactive)
REMARK    1  A    between atoms: C_2  and  C_5 
REMARK    2  A    between atoms: C_8  and  N_9 
REMARK       I    between atoms: N_9  and  C_10 
REMARK       I    between atoms: C_10  and  N_12 
REMARK    3  A    between atoms: N_15  and  C_16 
ROOT
HETATM    1  N   UNL     1     -12.387 -14.512   0.099  1.00  0.00    -0.309 N 
HETATM    2  C   UNL     1     -13.660 -13.999   0.027  1.00  0.00     0.323 C 
HETATM    3  O   UNL     1     -14.327 -13.667   1.005  1.00  0.00    -0.247 OA
HETATM    4  N   UNL     1     -14.169 -13.845  -1.251  1.00  0.00    -0.331 N 
HETATM    5  C   UNL     1     -13.550 -14.258  -2.527  1.00  0.00     0.147 C 
HETATM    6  C   UNL     1     -13.676 -13.137  -3.575  1.00  0.00     0.144 C 
HETATM    7  N   UNL     1     -15.091 -12.802  -3.715  1.00  0.00    -0.363 N 
HETATM    8  C   UNL     1     -15.704 -12.288  -2.482  1.00  0.00     0.144 C 
HETATM    9  C   UNL     1     -15.559 -13.361  -1.384  1.00  0.00     0.147 C 
HETATM   10  H   UNL     1     -11.854 -14.556  -0.748  1.00  0.00     0.170 HD
ENDROOT
BRANCH   1  11
HETATM   11  C   UNL     1     -11.653 -14.786   1.271  1.00  0.00     0.036 A 
HETATM   12  C   UNL     1     -12.026 -15.740   2.204  1.00  0.00     0.030 A 
HETATM   13  C   UNL     1     -11.281 -15.922   3.370  1.00  0.00     0.010 A 
HETATM   14  C   UNL     1     -10.119 -15.179   3.629  1.00  0.00    -0.051 A 
HETATM   15  C   UNL     1      -9.743 -14.228   2.666  1.00  0.00     0.010 A 
HETATM   16  C   UNL     1     -10.491 -14.041   1.496  1.00  0.00     0.030 A 
BRANCH  14  17
HETATM   17  C   UNL     1      -9.340 -15.370   4.940  1.00  0.00    -0.024 C 
HETATM   18  C   UNL     1     -10.177 -14.957   6.174  1.00  0.00     0.019 C 
HETATM   19  C   UNL     1      -8.075 -14.491   4.889  1.00  0.00     0.019 C 
HETATM   20  C   UNL     1      -8.912 -16.836   5.173  1.00  0.00     0.019 C 
ENDBRANCH  14  17
ENDBRANCH   1  11
BRANCH   7  21
HETATM   21  C   UNL     1     -15.771 -12.727  -4.903  1.00  0.00     0.125 A 
HETATM   22  N   UNL     1     -16.069 -13.918  -5.489  1.00  0.00    -0.351 N 
HETATM   23  C   UNL     1     -16.712 -13.932  -6.677  1.00  0.00     0.090 A 
ATOM     24  HN  UNL     1     -15.810 -14.794  -5.035  1.00  0.00     0.166 HD
HETATM   25  C   UNL     1     -17.100 -12.794  -7.351  1.00  0.00     0.019 A 
HETATM   26  C   UNL     1     -16.794 -11.570  -6.777  1.00  0.00     0.029 A 
HETATM   27  C   UNL     1     -16.114 -11.526  -5.557  1.00  0.00     0.077 A 
HETATM   28 CL   UNL     1     -15.630  -9.947  -5.027  1.00  0.00    -0.080 Cl
ENDBRANCH   7  21
TORSDOF 3
ENDMDL
