MODEL 1
REMARK VINA RESULT:      -8.8      0.000      0.000
REMARK  7 active torsions:
REMARK  status: ('A' for Active; 'I' for Inactive)
REMARK    1  A    between atoms: O_1  and  C_2 
REMARK    2  A    between atoms: C_7  and  O_8 
REMARK    3  A    between atoms: N_10  and  C_11 
REMARK    4  A    between atoms: C_11  and  N_13 
REMARK    5  A    between atoms: N_13  and  C_14 
REMARK    6  A    between atoms: C_14  and  C_15 
REMARK    7  A    between atoms: C_15  and  C_16 
ROOT
HETATM    1  C   UNL     1     -23.814  -3.312 -10.883  1.00  0.00     0.099 A 
HETATM    2  C   UNL     1     -22.424  -3.411 -10.874  1.00  0.00     0.047 A 
HETATM    3  C   UNL     1     -21.732  -3.598  -9.666  1.00  0.00    -0.047 A 
HETATM    4  C   UNL     1     -22.449  -3.672  -8.450  1.00  0.00    -0.031 A 
HETATM    5  C   UNL     1     -23.854  -3.572  -8.480  1.00  0.00     0.048 A 
HETATM    6  C   UNL     1     -24.528  -3.393  -9.688  1.00  0.00     0.099 A 
HETATM    7  C   UNL     1     -21.732  -3.863  -7.132  1.00  0.00     0.164 C 
HETATM    8  N   UNL     1     -21.093  -5.190  -7.054  1.00  0.00    -0.354 N 
HETATM    9  C   UNL     1     -19.770  -5.280  -7.686  1.00  0.00     0.126 C 
HETATM   10  C   UNL     1     -19.786  -5.136  -9.210  1.00  0.00     0.025 C 
HETATM   11  C   UNL     1     -20.230  -3.750  -9.687  1.00  0.00     0.041 C 
ENDROOT
BRANCH   8  12
HETATM   12  C   UNL     1     -21.696  -6.248  -6.359  1.00  0.00     0.170 C 
HETATM   13  S   UNL     1     -23.173  -6.113  -5.556  1.00  0.00    -0.041 SA
BRANCH  12  14
HETATM   14  N   UNL     1     -20.980  -7.439  -6.402  1.00  0.00    -0.367 N 
HETATM   15  H   UNL     1     -20.898  -7.856  -7.315  1.00  0.00     0.161 HD
BRANCH  14  16
HETATM   16  C   UNL     1     -20.968  -8.393  -5.286  1.00  0.00     0.126 C 
BRANCH  16  17
HETATM   17  C   UNL     1     -20.174  -7.944  -4.056  1.00  0.00     0.058 C 
BRANCH  17  18
HETATM   18  C   UNL     1     -20.967  -7.940  -2.771  1.00  0.00    -0.057 A 
HETATM   19  C   UNL     1     -21.573  -6.763  -2.305  1.00  0.00     0.009 A 
HETATM   20  C   UNL     1     -22.279  -6.757  -1.101  1.00  0.00     0.024 A 
HETATM   21  C   UNL     1     -22.397  -7.932  -0.364  1.00  0.00     0.034 A 
HETATM   22 CL   UNL     1     -23.239  -7.920   1.136  1.00  0.00    -0.084 Cl
HETATM   23  C   UNL     1     -21.836  -9.116  -0.834  1.00  0.00     0.024 A 
HETATM   24  C   UNL     1     -21.127  -9.122  -2.037  1.00  0.00     0.009 A 
ENDBRANCH  17  18
ENDBRANCH  16  17
ENDBRANCH  14  16
ENDBRANCH  12  14
ENDBRANCH   8  12
BRANCH   6  25
HETATM   25  O   UNL     1     -25.891  -3.303  -9.719  1.00  0.00    -0.358 OA
HETATM   26  H   UNL     1     -26.221  -3.780 -10.495  1.00  0.00     0.217 HD
ENDBRANCH   6  25
BRANCH   1  27
HETATM   27  O   UNL     1     -24.489  -3.152 -12.059  1.00  0.00    -0.358 OA
HETATM   28  H   UNL     1     -25.440  -3.248 -11.896  1.00  0.00     0.217 HD
ENDBRANCH   1  27
TORSDOF 7
ENDMDL
MODEL 2
REMARK VINA RESULT:      -8.4      1.486      1.949
REMARK  7 active torsions:
REMARK  status: ('A' for Active; 'I' for Inactive)
REMARK    1  A    between atoms: O_1  and  C_2 
REMARK    2  A    between atoms: C_7  and  O_8 
REMARK    3  A    between atoms: N_10  and  C_11 
REMARK    4  A    between atoms: C_11  and  N_13 
REMARK    5  A    between atoms: N_13  and  C_14 
REMARK    6  A    between atoms: C_14  and  C_15 
REMARK    7  A    between atoms: C_15  and  C_16 
ROOT
HETATM    1  C   UNL     1     -23.274  -3.798 -10.296  1.00  0.00     0.099 A 
HETATM    2  C   UNL     1     -21.886  -3.805 -10.174  1.00  0.00     0.047 A 
HETATM    3  C   UNL     1     -21.285  -3.904  -8.908  1.00  0.00    -0.047 A 
HETATM    4  C   UNL     1     -22.093  -3.982  -7.751  1.00  0.00    -0.031 A 
HETATM    5  C   UNL     1     -23.495  -3.975  -7.896  1.00  0.00     0.048 A 
HETATM    6  C   UNL     1     -24.077  -3.883  -9.160  1.00  0.00     0.099 A 
HETATM    7  C   UNL     1     -21.476  -4.079  -6.373  1.00  0.00     0.164 C 
HETATM    8  N   UNL     1     -20.763  -5.357  -6.191  1.00  0.00    -0.354 N 
HETATM    9  C   UNL     1     -19.390  -5.383  -6.712  1.00  0.00     0.126 C 
HETATM   10  C   UNL     1     -19.290  -5.293  -8.237  1.00  0.00     0.025 C 
HETATM   11  C   UNL     1     -19.780  -3.957  -8.804  1.00  0.00     0.041 C 
ENDROOT
BRANCH   8  12
HETATM   12  C   UNL     1     -21.354  -6.427  -5.504  1.00  0.00     0.170 C 
HETATM   13  S   UNL     1     -21.241  -8.033  -6.005  1.00  0.00    -0.041 SA
BRANCH  12  14
HETATM   14  N   UNL     1     -22.034  -6.055  -4.349  1.00  0.00    -0.367 N 
HETATM   15  H   UNL     1     -22.839  -5.467  -4.496  1.00  0.00     0.161 HD
BRANCH  14  16
HETATM   16  C   UNL     1     -21.353  -5.855  -3.063  1.00  0.00     0.126 C 
BRANCH  16  17
HETATM   17  C   UNL     1     -22.214  -6.126  -1.825  1.00  0.00     0.058 C 
BRANCH  17  18
HETATM   18  C   UNL     1     -21.936  -7.450  -1.153  1.00  0.00    -0.057 A 
HETATM   19  C   UNL     1     -22.647  -7.836  -0.006  1.00  0.00     0.009 A 
HETATM   20  C   UNL     1     -22.365  -9.046   0.630  1.00  0.00     0.024 A 
HETATM   21  C   UNL     1     -21.382  -9.886   0.113  1.00  0.00     0.034 A 
HETATM   22 CL   UNL     1     -21.011 -11.363   0.912  1.00  0.00    -0.084 Cl
HETATM   23  C   UNL     1     -20.697  -9.535  -1.047  1.00  0.00     0.024 A 
HETATM   24  C   UNL     1     -20.976  -8.322  -1.682  1.00  0.00     0.009 A 
ENDBRANCH  17  18
ENDBRANCH  16  17
ENDBRANCH  14  16
ENDBRANCH  12  14
ENDBRANCH   8  12
BRANCH   6  25
HETATM   25  O   UNL     1     -25.436  -3.884  -9.302  1.00  0.00    -0.358 OA
HETATM   26  H   UNL     1     -25.741  -4.797  -9.409  1.00  0.00     0.217 HD
ENDBRANCH   6  25
BRANCH   1  27
HETATM   27  O   UNL     1     -23.860  -3.725 -11.528  1.00  0.00    -0.358 OA
HETATM   28  H   UNL     1     -24.030  -4.621 -11.854  1.00  0.00     0.217 HD
ENDBRANCH   1  27
TORSDOF 7
ENDMDL
MODEL 3
REMARK VINA RESULT:      -8.1      4.888      9.222
REMARK  7 active torsions:
REMARK  status: ('A' for Active; 'I' for Inactive)
REMARK    1  A    between atoms: O_1  and  C_2 
REMARK    2  A    between atoms: C_7  and  O_8 
REMARK    3  A    between atoms: N_10  and  C_11 
REMARK    4  A    between atoms: C_11  and  N_13 
REMARK    5  A    between atoms: N_13  and  C_14 
REMARK    6  A    between atoms: C_14  and  C_15 
REMARK    7  A    between atoms: C_15  and  C_16 
ROOT
HETATM    1  C   UNL     1     -22.936 -11.316  -0.424  1.00  0.00     0.099 A 
HETATM    2  C   UNL     1     -22.914  -9.979  -0.031  1.00  0.00     0.047 A 
HETATM    3  C   UNL     1     -22.014  -9.078  -0.623  1.00  0.00    -0.047 A 
HETATM    4  C   UNL     1     -21.114  -9.535  -1.614  1.00  0.00    -0.031 A 
HETATM    5  C   UNL     1     -21.154 -10.889  -1.999  1.00  0.00     0.048 A 
HETATM    6  C   UNL     1     -22.058 -11.770  -1.406  1.00  0.00     0.099 A 
HETATM    7  C   UNL     1     -20.126  -8.592  -2.263  1.00  0.00     0.164 C 
HETATM    8  N   UNL     1     -20.810  -7.575  -3.085  1.00  0.00    -0.354 N 
HETATM    9  C   UNL     1     -21.304  -6.407  -2.343  1.00  0.00     0.126 C 
HETATM   10  C   UNL     1     -22.449  -6.711  -1.373  1.00  0.00     0.025 C 
HETATM   11  C   UNL     1     -22.041  -7.626  -0.214  1.00  0.00     0.041 C 
ENDROOT
BRANCH   8  12
HETATM   12  C   UNL     1     -20.904  -7.709  -4.477  1.00  0.00     0.170 C 
HETATM   13  S   UNL     1     -20.885  -9.195  -5.274  1.00  0.00    -0.041 SA
BRANCH  12  14
HETATM   14  N   UNL     1     -21.036  -6.503  -5.156  1.00  0.00    -0.367 N 
HETATM   15  H   UNL     1     -21.952  -6.085  -5.114  1.00  0.00     0.161 HD
BRANCH  14  16
HETATM   16  C   UNL     1     -20.277  -6.197  -6.375  1.00  0.00     0.126 C 
BRANCH  16  17
HETATM   17  C   UNL     1     -20.264  -4.719  -6.777  1.00  0.00     0.058 C 
BRANCH  17  18
HETATM   18  C   UNL     1     -21.236  -4.365  -7.877  1.00  0.00    -0.057 A 
HETATM   19  C   UNL     1     -20.785  -4.113  -9.181  1.00  0.00     0.009 A 
HETATM   20  C   UNL     1     -21.685  -3.755 -10.187  1.00  0.00     0.024 A 
HETATM   21  C   UNL     1     -23.043  -3.665  -9.898  1.00  0.00     0.034 A 
HETATM   22 CL   UNL     1     -24.150  -3.194 -11.128  1.00  0.00    -0.084 Cl
HETATM   23  C   UNL     1     -23.511  -3.952  -8.619  1.00  0.00     0.024 A 
HETATM   24  C   UNL     1     -22.610  -4.306  -7.611  1.00  0.00     0.009 A 
ENDBRANCH  17  18
ENDBRANCH  16  17
ENDBRANCH  14  16
ENDBRANCH  12  14
ENDBRANCH   8  12
BRANCH   6  25
HETATM   25  O   UNL     1     -22.102 -13.083  -1.785  1.00  0.00    -0.358 OA
HETATM   26  H   UNL     1     -21.197 -13.427  -1.832  1.00  0.00     0.217 HD
ENDBRANCH   6  25
BRANCH   1  27
HETATM   27  O   UNL     1     -23.827 -12.188   0.135  1.00  0.00    -0.358 OA
HETATM   28  H   UNL     1     -23.962 -11.952   1.065  1.00  0.00     0.217 HD
ENDBRANCH   1  27
TORSDOF 7
ENDMDL
MODEL 4
REMARK VINA RESULT:      -8.0      5.636      7.548
REMARK  7 active torsions:
REMARK  status: ('A' for Active; 'I' for Inactive)
REMARK    1  A    between atoms: O_1  and  C_2 
REMARK    2  A    between atoms: C_7  and  O_8 
REMARK    3  A    between atoms: N_10  and  C_11 
REMARK    4  A    between atoms: C_11  and  N_13 
REMARK    5  A    between atoms: N_13  and  C_14 
REMARK    6  A    between atoms: C_14  and  C_15 
REMARK    7  A    between atoms: C_15  and  C_16 
ROOT
HETATM    1  C   UNL     1     -22.241  -7.960  -0.070  1.00  0.00     0.099 A 
HETATM    2  C   UNL     1     -22.335  -7.140  -1.193  1.00  0.00     0.047 A 
HETATM    3  C   UNL     1     -21.441  -7.298  -2.265  1.00  0.00    -0.047 A 
HETATM    4  C   UNL     1     -20.431  -8.285  -2.197  1.00  0.00    -0.031 A 
HETATM    5  C   UNL     1     -20.354  -9.105  -1.054  1.00  0.00     0.048 A 
HETATM    6  C   UNL     1     -21.252  -8.940  -0.000  1.00  0.00     0.099 A 
HETATM    7  C   UNL     1     -19.447  -8.472  -3.331  1.00  0.00     0.164 C 
HETATM    8  N   UNL     1     -20.116  -8.971  -4.547  1.00  0.00    -0.354 N 
HETATM    9  C   UNL     1     -20.743  -7.936  -5.380  1.00  0.00     0.126 C 
HETATM   10  C   UNL     1     -21.950  -7.250  -4.734  1.00  0.00     0.025 C 
HETATM   11  C   UNL     1     -21.593  -6.430  -3.491  1.00  0.00     0.041 C 
ENDROOT
BRANCH   8  12
HETATM   12  C   UNL     1     -20.076 -10.329  -4.893  1.00  0.00     0.170 C 
HETATM   13  S   UNL     1     -18.697 -11.288  -4.748  1.00  0.00    -0.041 SA
BRANCH  12  14
HETATM   14  N   UNL     1     -21.287 -10.834  -5.353  1.00  0.00    -0.367 N 
HETATM   15  H   UNL     1     -21.754 -10.266  -6.043  1.00  0.00     0.161 HD
BRANCH  14  16
HETATM   16  C   UNL     1     -22.183 -11.631  -4.505  1.00  0.00     0.126 C 
BRANCH  16  17
HETATM   17  C   UNL     1     -22.917 -10.843  -3.416  1.00  0.00     0.058 C 
BRANCH  17  18
HETATM   18  C   UNL     1     -22.913 -11.506  -2.059  1.00  0.00    -0.057 A 
HETATM   19  C   UNL     1     -21.924 -12.442  -1.720  1.00  0.00     0.009 A 
HETATM   20  C   UNL     1     -21.943 -13.075  -0.475  1.00  0.00     0.024 A 
HETATM   21  C   UNL     1     -22.941 -12.763   0.443  1.00  0.00     0.034 A 
HETATM   22 CL   UNL     1     -22.985 -13.564   1.964  1.00  0.00    -0.084 Cl
HETATM   23  C   UNL     1     -23.906 -11.807   0.136  1.00  0.00     0.024 A 
HETATM   24  C   UNL     1     -23.889 -11.176  -1.110  1.00  0.00     0.009 A 
ENDBRANCH  17  18
ENDBRANCH  16  17
ENDBRANCH  14  16
ENDBRANCH  12  14
ENDBRANCH   8  12
BRANCH   6  25
HETATM   25  O   UNL     1     -21.183  -9.740   1.106  1.00  0.00    -0.358 OA
HETATM   26  H   UNL     1     -21.383  -9.209   1.891  1.00  0.00     0.217 HD
ENDBRANCH   6  25
BRANCH   1  27
HETATM   27  O   UNL     1     -23.124  -7.822   0.964  1.00  0.00    -0.358 OA
HETATM   28  H   UNL     1     -23.422  -6.901   1.007  1.00  0.00     0.217 HD
ENDBRANCH   1  27
TORSDOF 7
ENDMDL
MODEL 5
REMARK VINA RESULT:      -7.5      5.239      7.715
REMARK  7 active torsions:
REMARK  status: ('A' for Active; 'I' for Inactive)
REMARK    1  A    between atoms: O_1  and  C_2 
REMARK    2  A    between atoms: C_7  and  O_8 
REMARK    3  A    between atoms: N_10  and  C_11 
REMARK    4  A    between atoms: C_11  and  N_13 
REMARK    5  A    between atoms: N_13  and  C_14 
REMARK    6  A    between atoms: C_14  and  C_15 
REMARK    7  A    between atoms: C_15  and  C_16 
ROOT
HETATM    1  C   UNL     1     -20.781  -5.807  -4.886  1.00  0.00     0.099 A 
HETATM    2  C   UNL     1     -21.172  -5.956  -3.557  1.00  0.00     0.047 A 
HETATM    3  C   UNL     1     -21.535  -7.220  -3.060  1.00  0.00    -0.047 A 
HETATM    4  C   UNL     1     -21.517  -8.343  -3.918  1.00  0.00    -0.031 A 
HETATM    5  C   UNL     1     -21.116  -8.171  -5.258  1.00  0.00     0.048 A 
HETATM    6  C   UNL     1     -20.754  -6.912  -5.735  1.00  0.00     0.099 A 
HETATM    7  C   UNL     1     -21.911  -9.714  -3.416  1.00  0.00     0.164 C 
HETATM    8  N   UNL     1     -20.946 -10.222  -2.422  1.00  0.00    -0.354 N 
HETATM    9  C   UNL     1     -21.166  -9.751  -1.047  1.00  0.00     0.126 C 
HETATM   10  C   UNL     1     -20.920  -8.254  -0.844  1.00  0.00     0.025 C 
HETATM   11  C   UNL     1     -21.909  -7.365  -1.605  1.00  0.00     0.041 C 
ENDROOT
BRANCH   8  12
HETATM   12  C   UNL     1     -19.949 -11.139  -2.780  1.00  0.00     0.170 C 
HETATM   13  S   UNL     1     -20.264 -12.598  -3.564  1.00  0.00    -0.041 SA
BRANCH  12  14
HETATM   14  N   UNL     1     -18.660 -10.736  -2.450  1.00  0.00    -0.367 N 
HETATM   15  H   UNL     1     -18.344 -11.018  -1.536  1.00  0.00     0.161 HD
BRANCH  14  16
HETATM   16  C   UNL     1     -18.075  -9.483  -2.943  1.00  0.00     0.126 C 
BRANCH  16  17
HETATM   17  C   UNL     1     -16.551  -9.387  -2.823  1.00  0.00     0.058 C 
BRANCH  17  18
HETATM   18  C   UNL     1     -15.796 -10.357  -3.701  1.00  0.00    -0.057 A 
HETATM   19  C   UNL     1     -15.121 -11.454  -3.144  1.00  0.00     0.009 A 
HETATM   20  C   UNL     1     -14.399 -12.331  -3.955  1.00  0.00     0.024 A 
HETATM   21  C   UNL     1     -14.361 -12.125  -5.332  1.00  0.00     0.034 A 
HETATM   22 CL   UNL     1     -13.447 -13.184  -6.331  1.00  0.00    -0.084 Cl
HETATM   23  C   UNL     1     -15.059 -11.064  -5.903  1.00  0.00     0.024 A 
HETATM   24  C   UNL     1     -15.780 -10.185  -5.091  1.00  0.00     0.009 A 
ENDBRANCH  17  18
ENDBRANCH  16  17
ENDBRANCH  14  16
ENDBRANCH  12  14
ENDBRANCH   8  12
BRANCH   6  25
HETATM   25  O   UNL     1     -20.359  -6.746  -7.033  1.00  0.00    -0.358 OA
HETATM   26  H   UNL     1     -19.438  -7.034  -7.121  1.00  0.00     0.217 HD
ENDBRANCH   6  25
BRANCH   1  27
HETATM   27  O   UNL     1     -20.408  -4.583  -5.364  1.00  0.00    -0.358 OA
HETATM   28  H   UNL     1     -20.003  -4.693  -6.238  1.00  0.00     0.217 HD
ENDBRANCH   1  27
TORSDOF 7
ENDMDL
MODEL 6
REMARK VINA RESULT:      -7.5      6.557      9.412
REMARK  7 active torsions:
REMARK  status: ('A' for Active; 'I' for Inactive)
REMARK    1  A    between atoms: O_1  and  C_2 
REMARK    2  A    between atoms: C_7  and  O_8 
REMARK    3  A    between atoms: N_10  and  C_11 
REMARK    4  A    between atoms: C_11  and  N_13 
REMARK    5  A    between atoms: N_13  and  C_14 
REMARK    6  A    between atoms: C_14  and  C_15 
REMARK    7  A    between atoms: C_15  and  C_16 
ROOT
HETATM    1  C   UNL     1     -13.807 -13.422  -4.070  1.00  0.00     0.099 A 
HETATM    2  C   UNL     1     -14.430 -12.836  -2.969  1.00  0.00     0.047 A 
HETATM    3  C   UNL     1     -15.139 -11.631  -3.110  1.00  0.00    -0.047 A 
HETATM    4  C   UNL     1     -15.208 -11.002  -4.375  1.00  0.00    -0.031 A 
HETATM    5  C   UNL     1     -14.574 -11.611  -5.475  1.00  0.00     0.048 A 
HETATM    6  C   UNL     1     -13.879 -12.810  -5.320  1.00  0.00     0.099 A 
HETATM    7  C   UNL     1     -15.955  -9.700  -4.558  1.00  0.00     0.164 C 
HETATM    8  N   UNL     1     -17.406  -9.878  -4.356  1.00  0.00    -0.354 N 
HETATM    9  C   UNL     1     -17.849  -9.834  -2.956  1.00  0.00     0.126 C 
HETATM   10  C   UNL     1     -17.365 -11.008  -2.102  1.00  0.00     0.025 C 
HETATM   11  C   UNL     1     -15.845 -11.041  -1.914  1.00  0.00     0.041 C 
ENDROOT
BRANCH   8  12
HETATM   12  C   UNL     1     -18.280 -10.005  -5.445  1.00  0.00     0.170 C 
HETATM   13  S   UNL     1     -18.455 -11.425  -6.337  1.00  0.00    -0.041 SA
BRANCH  12  14
HETATM   14  N   UNL     1     -19.016  -8.858  -5.721  1.00  0.00    -0.367 N 
HETATM   15  H   UNL     1     -18.477  -8.008  -5.781  1.00  0.00     0.161 HD
BRANCH  14  16
HETATM   16  C   UNL     1     -20.399  -8.679  -5.262  1.00  0.00     0.126 C 
BRANCH  16  17
HETATM   17  C   UNL     1     -20.679  -7.352  -4.550  1.00  0.00     0.058 C 
BRANCH  17  18
HETATM   18  C   UNL     1     -21.268  -7.500  -3.168  1.00  0.00    -0.057 A 
HETATM   19  C   UNL     1     -21.304  -8.751  -2.533  1.00  0.00     0.009 A 
HETATM   20  C   UNL     1     -21.877  -8.889  -1.267  1.00  0.00     0.024 A 
HETATM   21  C   UNL     1     -22.403  -7.773  -0.622  1.00  0.00     0.034 A 
HETATM   22 CL   UNL     1     -23.138  -7.945   0.924  1.00  0.00    -0.084 Cl
HETATM   23  C   UNL     1     -22.337  -6.518  -1.222  1.00  0.00     0.024 A 
HETATM   24  C   UNL     1     -21.767  -6.381  -2.489  1.00  0.00     0.009 A 
ENDBRANCH  17  18
ENDBRANCH  16  17
ENDBRANCH  14  16
ENDBRANCH  12  14
ENDBRANCH   8  12
BRANCH   6  25
HETATM   25  O   UNL     1     -13.269 -13.405  -6.389  1.00  0.00    -0.358 OA
HETATM   26  H   UNL     1     -12.380 -13.033  -6.492  1.00  0.00     0.217 HD
ENDBRANCH   6  25
BRANCH   1  27
HETATM   27  O   UNL     1     -13.137 -14.604  -3.937  1.00  0.00    -0.358 OA
HETATM   28  H   UNL     1     -12.556 -14.556  -3.163  1.00  0.00     0.217 HD
ENDBRANCH   1  27
TORSDOF 7
ENDMDL
MODEL 7
REMARK VINA RESULT:      -7.3      6.164      9.815
REMARK  7 active torsions:
REMARK  status: ('A' for Active; 'I' for Inactive)
REMARK    1  A    between atoms: O_1  and  C_2 
REMARK    2  A    between atoms: C_7  and  O_8 
REMARK    3  A    between atoms: N_10  and  C_11 
REMARK    4  A    between atoms: C_11  and  N_13 
REMARK    5  A    between atoms: N_13  and  C_14 
REMARK    6  A    between atoms: C_14  and  C_15 
REMARK    7  A    between atoms: C_15  and  C_16 
ROOT
HETATM    1  C   UNL     1     -16.244 -11.579  -0.935  1.00  0.00     0.099 A 
HETATM    2  C   UNL     1     -15.620 -11.382  -2.166  1.00  0.00     0.047 A 
HETATM    3  C   UNL     1     -16.380 -11.298  -3.344  1.00  0.00    -0.047 A 
HETATM    4  C   UNL     1     -17.786 -11.430  -3.283  1.00  0.00    -0.031 A 
HETATM    5  C   UNL     1     -18.399 -11.626  -2.030  1.00  0.00     0.048 A 
HETATM    6  C   UNL     1     -17.631 -11.701  -0.868  1.00  0.00     0.099 A 
HETATM    7  C   UNL     1     -18.632 -11.354  -4.535  1.00  0.00     0.164 C 
HETATM    8  N   UNL     1     -18.594 -10.005  -5.129  1.00  0.00    -0.354 N 
HETATM    9  C   UNL     1     -17.440  -9.741  -5.999  1.00  0.00     0.126 C 
HETATM   10  C   UNL     1     -16.096  -9.693  -5.268  1.00  0.00     0.025 C 
HETATM   11  C   UNL     1     -15.684 -11.037  -4.658  1.00  0.00     0.041 C 
ENDROOT
BRANCH   8  12
HETATM   12  C   UNL     1     -19.635  -9.089  -4.919  1.00  0.00     0.170 C 
HETATM   13  S   UNL     1     -20.778  -9.244  -3.689  1.00  0.00    -0.041 SA
BRANCH  12  14
HETATM   14  N   UNL     1     -19.638  -8.018  -5.806  1.00  0.00    -0.367 N 
HETATM   15  H   UNL     1     -18.737  -7.774  -6.185  1.00  0.00     0.161 HD
BRANCH  14  16
HETATM   16  C   UNL     1     -20.579  -6.898  -5.686  1.00  0.00     0.126 C 
BRANCH  16  17
HETATM   17  C   UNL     1     -20.020  -5.534  -6.101  1.00  0.00     0.058 C 
BRANCH  17  18
HETATM   18  C   UNL     1     -20.671  -4.940  -7.327  1.00  0.00    -0.057 A 
HETATM   19  C   UNL     1     -19.924  -4.694  -8.489  1.00  0.00     0.009 A 
HETATM   20  C   UNL     1     -20.524  -4.117  -9.610  1.00  0.00     0.024 A 
HETATM   21  C   UNL     1     -21.879  -3.798  -9.581  1.00  0.00     0.034 A 
HETATM   22 CL   UNL     1     -22.613  -3.058 -10.948  1.00  0.00    -0.084 Cl
HETATM   23  C   UNL     1     -22.642  -4.074  -8.449  1.00  0.00     0.024 A 
HETATM   24  C   UNL     1     -22.041  -4.648  -7.327  1.00  0.00     0.009 A 
ENDBRANCH  17  18
ENDBRANCH  16  17
ENDBRANCH  14  16
ENDBRANCH  12  14
ENDBRANCH   8  12
BRANCH   6  25
HETATM   25  O   UNL     1     -18.226 -11.885   0.349  1.00  0.00    -0.358 OA
HETATM   26  H   UNL     1     -17.538 -12.024   1.018  1.00  0.00     0.217 HD
ENDBRANCH   6  25
BRANCH   1  27
HETATM   27  O   UNL     1     -15.508 -11.638   0.213  1.00  0.00    -0.358 OA
HETATM   28  H   UNL     1     -15.614 -12.514   0.615  1.00  0.00     0.217 HD
ENDBRANCH   1  27
TORSDOF 7
ENDMDL
MODEL 8
REMARK VINA RESULT:      -7.2      6.551      9.073
REMARK  7 active torsions:
REMARK  status: ('A' for Active; 'I' for Inactive)
REMARK    1  A    between atoms: O_1  and  C_2 
REMARK    2  A    between atoms: C_7  and  O_8 
REMARK    3  A    between atoms: N_10  and  C_11 
REMARK    4  A    between atoms: C_11  and  N_13 
REMARK    5  A    between atoms: N_13  and  C_14 
REMARK    6  A    between atoms: C_14  and  C_15 
REMARK    7  A    between atoms: C_15  and  C_16 
ROOT
HETATM    1  C   UNL     1     -22.095  -6.790  -1.761  1.00  0.00     0.099 A 
HETATM    2  C   UNL     1     -22.389  -7.721  -0.766  1.00  0.00     0.047 A 
HETATM    3  C   UNL     1     -22.189  -9.093  -0.995  1.00  0.00    -0.047 A 
HETATM    4  C   UNL     1     -21.702  -9.532  -2.247  1.00  0.00    -0.031 A 
HETATM    5  C   UNL     1     -21.409  -8.575  -3.239  1.00  0.00     0.048 A 
HETATM    6  C   UNL     1     -21.607  -7.216  -2.995  1.00  0.00     0.099 A 
HETATM    7  C   UNL     1     -21.486 -11.002  -2.528  1.00  0.00     0.164 C 
HETATM    8  N   UNL     1     -20.398 -11.555  -1.698  1.00  0.00    -0.354 N 
HETATM    9  C   UNL     1     -20.796 -11.961  -0.343  1.00  0.00     0.126 C 
HETATM   10  C   UNL     1     -21.200 -10.803   0.572  1.00  0.00     0.025 C 
HETATM   11  C   UNL     1     -22.469 -10.078   0.114  1.00  0.00     0.041 C 
ENDROOT
BRANCH   8  12
HETATM   12  C   UNL     1     -19.108 -11.733  -2.217  1.00  0.00     0.170 C 
HETATM   13  S   UNL     1     -18.663 -13.045  -3.177  1.00  0.00    -0.041 SA
BRANCH  12  14
HETATM   14  N   UNL     1     -18.218 -10.717  -1.888  1.00  0.00    -0.367 N 
HETATM   15  H   UNL     1     -18.279 -10.385  -0.938  1.00  0.00     0.161 HD
BRANCH  14  16
HETATM   16  C   UNL     1     -17.770  -9.714  -2.862  1.00  0.00     0.126 C 
BRANCH  16  17
HETATM   17  C   UNL     1     -16.251  -9.549  -2.971  1.00  0.00     0.058 C 
BRANCH  17  18
HETATM   18  C   UNL     1     -15.566 -10.618  -3.788  1.00  0.00    -0.057 A 
HETATM   19  C   UNL     1     -14.921 -11.696  -3.164  1.00  0.00     0.009 A 
HETATM   20  C   UNL     1     -14.263 -12.666  -3.922  1.00  0.00     0.024 A 
HETATM   21  C   UNL     1     -14.260 -12.572  -5.311  1.00  0.00     0.034 A 
HETATM   22 CL   UNL     1     -13.423 -13.747  -6.247  1.00  0.00    -0.084 Cl
HETATM   23  C   UNL     1     -14.930 -11.530  -5.946  1.00  0.00     0.024 A 
HETATM   24  C   UNL     1     -15.587 -10.558  -5.187  1.00  0.00     0.009 A 
ENDBRANCH  17  18
ENDBRANCH  16  17
ENDBRANCH  14  16
ENDBRANCH  12  14
ENDBRANCH   8  12
BRANCH   6  25
HETATM   25  O   UNL     1     -21.316  -6.287  -3.954  1.00  0.00    -0.358 OA
HETATM   26  H   UNL     1     -20.625  -5.695  -3.621  1.00  0.00     0.217 HD
ENDBRANCH   6  25
BRANCH   1  27
HETATM   27  O   UNL     1     -22.268  -5.454  -1.532  1.00  0.00    -0.358 OA
HETATM   28  H   UNL     1     -23.045  -5.326  -0.968  1.00  0.00     0.217 HD
ENDBRANCH   1  27
TORSDOF 7
ENDMDL
MODEL 9
REMARK VINA RESULT:      -7.2      5.149      9.459
REMARK  7 active torsions:
REMARK  status: ('A' for Active; 'I' for Inactive)
REMARK    1  A    between atoms: O_1  and  C_2 
REMARK    2  A    between atoms: C_7  and  O_8 
REMARK    3  A    between atoms: N_10  and  C_11 
REMARK    4  A    between atoms: C_11  and  N_13 
REMARK    5  A    between atoms: N_13  and  C_14 
REMARK    6  A    between atoms: C_14  and  C_15 
REMARK    7  A    between atoms: C_15  and  C_16 
ROOT
HETATM    1  C   UNL     1     -23.475 -12.614  -1.144  1.00  0.00     0.099 A 
HETATM    2  C   UNL     1     -23.449 -11.369  -0.518  1.00  0.00     0.047 A 
HETATM    3  C   UNL     1     -22.315 -10.545  -0.622  1.00  0.00    -0.047 A 
HETATM    4  C   UNL     1     -21.189 -10.989  -1.353  1.00  0.00    -0.031 A 
HETATM    5  C   UNL     1     -21.237 -12.249  -1.980  1.00  0.00     0.048 A 
HETATM    6  C   UNL     1     -22.372 -13.053  -1.874  1.00  0.00     0.099 A 
HETATM    7  C   UNL     1     -19.951 -10.129  -1.475  1.00  0.00     0.164 C 
HETATM    8  N   UNL     1     -20.216  -8.909  -2.260  1.00  0.00    -0.354 N 
HETATM    9  C   UNL     1     -20.806  -7.798  -1.500  1.00  0.00     0.126 C 
HETATM   10  C   UNL     1     -22.232  -8.055  -1.008  1.00  0.00     0.025 C 
HETATM   11  C   UNL     1     -22.328  -9.181   0.025  1.00  0.00     0.041 C 
ENDROOT
BRANCH   8  12
HETATM   12  C   UNL     1     -19.855  -8.822  -3.612  1.00  0.00     0.170 C 
HETATM   13  S   UNL     1     -18.454  -9.510  -4.248  1.00  0.00    -0.041 SA
BRANCH  12  14
HETATM   14  N   UNL     1     -20.768  -8.131  -4.400  1.00  0.00    -0.367 N 
HETATM   15  H   UNL     1     -21.538  -8.681  -4.746  1.00  0.00     0.161 HD
BRANCH  14  16
HETATM   16  C   UNL     1     -20.375  -7.011  -5.265  1.00  0.00     0.126 C 
BRANCH  16  17
HETATM   17  C   UNL     1     -21.460  -5.955  -5.492  1.00  0.00     0.058 C 
BRANCH  17  18
HETATM   18  C   UNL     1     -21.367  -5.243  -6.821  1.00  0.00    -0.057 A 
HETATM   19  C   UNL     1     -22.423  -4.442  -7.282  1.00  0.00     0.009 A 
HETATM   20  C   UNL     1     -22.345  -3.811  -8.525  1.00  0.00     0.024 A 
HETATM   21  C   UNL     1     -21.204  -3.964  -9.307  1.00  0.00     0.034 A 
HETATM   22 CL   UNL     1     -21.119  -3.214 -10.852  1.00  0.00    -0.084 Cl
HETATM   23  C   UNL     1     -20.132  -4.723  -8.845  1.00  0.00     0.024 A 
HETATM   24  C   UNL     1     -20.211  -5.357  -7.603  1.00  0.00     0.009 A 
ENDBRANCH  17  18
ENDBRANCH  16  17
ENDBRANCH  14  16
ENDBRANCH  12  14
ENDBRANCH   8  12
BRANCH   6  25
HETATM   25  O   UNL     1     -22.421 -14.273  -2.488  1.00  0.00    -0.358 OA
HETATM   26  H   UNL     1     -22.064 -14.944  -1.886  1.00  0.00     0.217 HD
ENDBRANCH   6  25
BRANCH   1  27
HETATM   27  O   UNL     1     -24.585 -13.406  -1.063  1.00  0.00    -0.358 OA
HETATM   28  H   UNL     1     -25.377 -12.850  -1.108  1.00  0.00     0.217 HD
ENDBRANCH   1  27
TORSDOF 7
ENDMDL
