MODEL 1
REMARK VINA RESULT:      -7.4      0.000      0.000
REMARK  10 active torsions:
REMARK  status: ('A' for Active; 'I' for Inactive)
REMARK    1  A    between atoms: O_2  and  C_3 
REMARK    2  A    between atoms: C_5  and  C_6 
REMARK    3  A    between atoms: C_6  and  N_7 
REMARK       I    between atoms: N_7  and  C_8 
REMARK    4  A    between atoms: C_8  and  C_10 
REMARK    5  A    between atoms: C_10  and  C_11 
REMARK    6  A    between atoms: C_11  and  C_12 
REMARK    7  A    between atoms: C_12  and  C_13 
REMARK    8  A    between atoms: C_13  and  C_14 
REMARK    9  A    between atoms: C_15  and  C_16 
REMARK   10  A    between atoms: C_21  and  O_22 
ROOT
HETATM    1  N   UNL     1     -21.291  -6.308  -3.781  1.00  0.00    -0.357 N 
HETATM    2  C   UNL     1     -22.024  -6.300  -4.941  1.00  0.00     0.217 C 
HETATM    3  O   UNL     1     -23.241  -6.130  -4.970  1.00  0.00    -0.274 OA
HETATM    4  H   UNL     1     -20.302  -6.519  -3.809  1.00  0.00     0.162 HD
ENDROOT
BRANCH   1   5
HETATM    5  C   UNL     1     -21.913  -6.115  -2.491  1.00  0.00     0.161 C 
BRANCH   5   6
HETATM    6  C   UNL     1     -21.709  -7.301  -1.583  1.00  0.00    -0.038 A 
HETATM    7  C   UNL     1     -20.921  -8.394  -1.991  1.00  0.00     0.048 A 
HETATM    8  C   UNL     1     -20.679  -9.471  -1.129  1.00  0.00     0.101 A 
HETATM    9  C   UNL     1     -21.238  -9.441   0.157  1.00  0.00     0.099 A 
HETATM   10  C   UNL     1     -22.018  -8.365   0.578  1.00  0.00     0.040 A 
HETATM   11  C   UNL     1     -22.251  -7.299  -0.291  1.00  0.00     0.012 A 
BRANCH   8  12
HETATM   12  O   UNL     1     -19.919 -10.570  -1.432  1.00  0.00    -0.353 OA
HETATM   13  C   UNL     1     -18.846 -10.391  -2.346  1.00  0.00     0.210 C 
ENDBRANCH   8  12
BRANCH   9  14
HETATM   14  O   UNL     1     -21.007 -10.484   1.017  1.00  0.00    -0.358 OA
HETATM   15  H   UNL     1     -21.811 -10.655   1.532  1.00  0.00     0.217 HD
ENDBRANCH   9  14
ENDBRANCH   5   6
ENDBRANCH   1   5
BRANCH   2  16
HETATM   16  C   UNL     1     -21.203  -6.547  -6.191  1.00  0.00     0.103 C 
BRANCH  16  17
HETATM   17  C   UNL     1     -20.035  -5.570  -6.312  1.00  0.00     0.010 C 
BRANCH  17  18
HETATM   18  C   UNL     1     -20.469  -4.225  -6.902  1.00  0.00     0.004 C 
BRANCH  18  19
HETATM   19  C   UNL     1     -19.935  -4.048  -8.323  1.00  0.00     0.027 C 
BRANCH  19  20
HETATM   20  C   UNL     1     -21.053  -4.104  -9.323  1.00  0.00    -0.030 C 
HETATM   21  C   UNL     1     -22.339  -3.878  -9.014  1.00  0.00    -0.027 C 
BRANCH  21  22
HETATM   22  C   UNL     1     -23.465  -3.937 -10.016  1.00  0.00    -0.001 C 
HETATM   23  C   UNL     1     -23.889  -5.388 -10.240  1.00  0.00     0.013 C 
HETATM   24  C   UNL     1     -24.648  -3.099  -9.532  1.00  0.00     0.013 C 
ENDBRANCH  21  22
ENDBRANCH  19  20
ENDBRANCH  18  19
ENDBRANCH  17  18
ENDBRANCH  16  17
ENDBRANCH   2  16
TORSDOF 10
ENDMDL
MODEL 2
REMARK VINA RESULT:      -7.3      2.527      9.253
REMARK  10 active torsions:
REMARK  status: ('A' for Active; 'I' for Inactive)
REMARK    1  A    between atoms: O_2  and  C_3 
REMARK    2  A    between atoms: C_5  and  C_6 
REMARK    3  A    between atoms: C_6  and  N_7 
REMARK       I    between atoms: N_7  and  C_8 
REMARK    4  A    between atoms: C_8  and  C_10 
REMARK    5  A    between atoms: C_10  and  C_11 
REMARK    6  A    between atoms: C_11  and  C_12 
REMARK    7  A    between atoms: C_12  and  C_13 
REMARK    8  A    between atoms: C_13  and  C_14 
REMARK    9  A    between atoms: C_15  and  C_16 
REMARK   10  A    between atoms: C_21  and  O_22 
ROOT
HETATM    1  N   UNL     1     -20.955  -5.620  -6.255  1.00  0.00    -0.357 N 
HETATM    2  C   UNL     1     -21.225  -6.802  -5.611  1.00  0.00     0.217 C 
HETATM    3  O   UNL     1     -20.757  -7.883  -5.960  1.00  0.00    -0.274 OA
HETATM    4  H   UNL     1     -21.420  -4.769  -5.966  1.00  0.00     0.162 HD
ENDROOT
BRANCH   1   5
HETATM    5  C   UNL     1     -20.089  -5.567  -7.410  1.00  0.00     0.161 C 
BRANCH   5   6
HETATM    6  C   UNL     1     -20.730  -4.841  -8.565  1.00  0.00    -0.038 A 
HETATM    7  C   UNL     1     -22.112  -4.951  -8.807  1.00  0.00     0.048 A 
HETATM    8  C   UNL     1     -22.723  -4.232  -9.841  1.00  0.00     0.101 A 
HETATM    9  C   UNL     1     -21.929  -3.392 -10.637  1.00  0.00     0.099 A 
HETATM   10  C   UNL     1     -20.560  -3.270 -10.408  1.00  0.00     0.040 A 
HETATM   11  C   UNL     1     -19.964  -3.992  -9.375  1.00  0.00     0.012 A 
BRANCH   8  12
HETATM   12  O   UNL     1     -24.059  -4.267 -10.145  1.00  0.00    -0.353 OA
HETATM   13  C   UNL     1     -24.889  -3.273  -9.562  1.00  0.00     0.210 C 
ENDBRANCH   8  12
BRANCH   9  14
HETATM   14  O   UNL     1     -22.511  -2.676 -11.651  1.00  0.00    -0.358 OA
HETATM   15  H   UNL     1     -23.013  -1.938 -11.272  1.00  0.00     0.217 HD
ENDBRANCH   9  14
ENDBRANCH   5   6
ENDBRANCH   1   5
BRANCH   2  16
HETATM   16  C   UNL     1     -22.177  -6.663  -4.440  1.00  0.00     0.103 C 
BRANCH  16  17
HETATM   17  C   UNL     1     -21.506  -7.010  -3.112  1.00  0.00     0.010 C 
BRANCH  17  18
HETATM   18  C   UNL     1     -21.959  -6.084  -1.979  1.00  0.00     0.004 C 
BRANCH  18  19
HETATM   19  C   UNL     1     -22.187  -6.864  -0.686  1.00  0.00     0.027 C 
BRANCH  19  20
HETATM   20  C   UNL     1     -22.510  -8.301  -0.980  1.00  0.00    -0.030 C 
HETATM   21  C   UNL     1     -22.202  -9.315  -0.157  1.00  0.00    -0.027 C 
BRANCH  21  22
HETATM   22  C   UNL     1     -22.521 -10.760  -0.450  1.00  0.00    -0.001 C 
HETATM   23  C   UNL     1     -23.992 -11.042  -0.145  1.00  0.00     0.013 C 
HETATM   24  C   UNL     1     -22.201 -11.086  -1.909  1.00  0.00     0.013 C 
ENDBRANCH  21  22
ENDBRANCH  19  20
ENDBRANCH  18  19
ENDBRANCH  17  18
ENDBRANCH  16  17
ENDBRANCH   2  16
TORSDOF 10
ENDMDL
MODEL 3
REMARK VINA RESULT:      -7.1      2.242      8.786
REMARK  10 active torsions:
REMARK  status: ('A' for Active; 'I' for Inactive)
REMARK    1  A    between atoms: O_2  and  C_3 
REMARK    2  A    between atoms: C_5  and  C_6 
REMARK    3  A    between atoms: C_6  and  N_7 
REMARK       I    between atoms: N_7  and  C_8 
REMARK    4  A    between atoms: C_8  and  C_10 
REMARK    5  A    between atoms: C_10  and  C_11 
REMARK    6  A    between atoms: C_11  and  C_12 
REMARK    7  A    between atoms: C_12  and  C_13 
REMARK    8  A    between atoms: C_13  and  C_14 
REMARK    9  A    between atoms: C_15  and  C_16 
REMARK   10  A    between atoms: C_21  and  O_22 
ROOT
HETATM    1  N   UNL     1     -20.547  -6.394  -5.746  1.00  0.00    -0.357 N 
HETATM    2  C   UNL     1     -21.440  -6.877  -4.823  1.00  0.00     0.217 C 
HETATM    3  O   UNL     1     -22.146  -6.154  -4.124  1.00  0.00    -0.274 OA
HETATM    4  H   UNL     1     -19.943  -7.032  -6.248  1.00  0.00     0.162 HD
ENDROOT
BRANCH   1   5
HETATM    5  C   UNL     1     -20.370  -4.976  -5.958  1.00  0.00     0.161 C 
BRANCH   5   6
HETATM    6  C   UNL     1     -20.813  -4.550  -7.335  1.00  0.00    -0.038 A 
HETATM    7  C   UNL     1     -22.151  -4.186  -7.580  1.00  0.00     0.048 A 
HETATM    8  C   UNL     1     -22.556  -3.731  -8.840  1.00  0.00     0.101 A 
HETATM    9  C   UNL     1     -21.599  -3.643  -9.863  1.00  0.00     0.099 A 
HETATM   10  C   UNL     1     -20.270  -3.997  -9.635  1.00  0.00     0.040 A 
HETATM   11  C   UNL     1     -19.880  -4.448  -8.375  1.00  0.00     0.012 A 
BRANCH   8  12
HETATM   12  O   UNL     1     -23.829  -3.346  -9.170  1.00  0.00    -0.353 OA
HETATM   13  C   UNL     1     -24.676  -4.322  -9.759  1.00  0.00     0.210 C 
ENDBRANCH   8  12
BRANCH   9  14
HETATM   14  O   UNL     1     -21.976  -3.196 -11.102  1.00  0.00    -0.358 OA
HETATM   15  H   UNL     1     -21.875  -2.232 -11.137  1.00  0.00     0.217 HD
ENDBRANCH   9  14
ENDBRANCH   5   6
ENDBRANCH   1   5
BRANCH   2  16
HETATM   16  C   UNL     1     -21.465  -8.389  -4.722  1.00  0.00     0.103 C 
BRANCH  16  17
HETATM   17  C   UNL     1     -20.058  -8.986  -4.698  1.00  0.00     0.010 C 
BRANCH  17  18
HETATM   18  C   UNL     1     -19.420  -8.898  -3.309  1.00  0.00     0.004 C 
BRANCH  18  19
HETATM   19  C   UNL     1     -19.727 -10.145  -2.482  1.00  0.00     0.027 C 
BRANCH  19  20
HETATM   20  C   UNL     1     -20.836  -9.879  -1.506  1.00  0.00    -0.030 C 
HETATM   21  C   UNL     1     -21.241  -8.648  -1.158  1.00  0.00    -0.027 C 
BRANCH  21  22
HETATM   22  C   UNL     1     -22.351  -8.376  -0.175  1.00  0.00    -0.001 C 
HETATM   23  C   UNL     1     -23.280  -9.587  -0.087  1.00  0.00     0.013 C 
HETATM   24  C   UNL     1     -21.771  -8.043   1.199  1.00  0.00     0.013 C 
ENDBRANCH  21  22
ENDBRANCH  19  20
ENDBRANCH  18  19
ENDBRANCH  17  18
ENDBRANCH  16  17
ENDBRANCH   2  16
TORSDOF 10
ENDMDL
MODEL 4
REMARK VINA RESULT:      -6.9     14.581     16.345
REMARK  10 active torsions:
REMARK  status: ('A' for Active; 'I' for Inactive)
REMARK    1  A    between atoms: O_2  and  C_3 
REMARK    2  A    between atoms: C_5  and  C_6 
REMARK    3  A    between atoms: C_6  and  N_7 
REMARK       I    between atoms: N_7  and  C_8 
REMARK    4  A    between atoms: C_8  and  C_10 
REMARK    5  A    between atoms: C_10  and  C_11 
REMARK    6  A    between atoms: C_11  and  C_12 
REMARK    7  A    between atoms: C_12  and  C_13 
REMARK    8  A    between atoms: C_13  and  C_14 
REMARK    9  A    between atoms: C_15  and  C_16 
REMARK   10  A    between atoms: C_21  and  O_22 
ROOT
HETATM    1  N   UNL     1     -32.954  -4.540 -15.357  1.00  0.00    -0.357 N 
HETATM    2  C   UNL     1     -32.504  -4.173 -16.601  1.00  0.00     0.217 C 
HETATM    3  O   UNL     1     -33.129  -3.427 -17.351  1.00  0.00    -0.274 OA
HETATM    4  H   UNL     1     -32.432  -5.210 -14.807  1.00  0.00     0.162 HD
ENDROOT
BRANCH   1   5
HETATM    5  C   UNL     1     -34.217  -4.068 -14.838  1.00  0.00     0.161 C 
BRANCH   5   6
HETATM    6  C   UNL     1     -34.065  -3.410 -13.490  1.00  0.00    -0.038 A 
HETATM    7  C   UNL     1     -34.758  -2.223 -13.186  1.00  0.00     0.048 A 
HETATM    8  C   UNL     1     -34.669  -1.640 -11.916  1.00  0.00     0.101 A 
HETATM    9  C   UNL     1     -33.872  -2.264 -10.945  1.00  0.00     0.099 A 
HETATM   10  C   UNL     1     -33.181  -3.441 -11.229  1.00  0.00     0.040 A 
HETATM   11  C   UNL     1     -33.279  -4.011 -12.498  1.00  0.00     0.012 A 
BRANCH   8  12
HETATM   12  O   UNL     1     -35.313  -0.496 -11.525  1.00  0.00    -0.353 OA
HETATM   13  C   UNL     1     -36.538  -0.182 -12.171  1.00  0.00     0.210 C 
ENDBRANCH   8  12
BRANCH   9  14
HETATM   14  O   UNL     1     -33.775  -1.711  -9.695  1.00  0.00    -0.358 OA
HETATM   15  H   UNL     1     -34.061  -2.363  -9.035  1.00  0.00     0.217 HD
ENDBRANCH   9  14
ENDBRANCH   5   6
ENDBRANCH   1   5
BRANCH   2  16
HETATM   16  C   UNL     1     -31.174  -4.791 -16.982  1.00  0.00     0.103 C 
BRANCH  16  17
HETATM   17  C   UNL     1     -31.297  -6.288 -17.266  1.00  0.00     0.010 C 
BRANCH  17  18
HETATM   18  C   UNL     1     -30.025  -6.860 -17.899  1.00  0.00     0.004 C 
BRANCH  18  19
HETATM   19  C   UNL     1     -29.150  -5.750 -18.477  1.00  0.00     0.027 C 
BRANCH  19  20
HETATM   20  C   UNL     1     -27.790  -6.275 -18.836  1.00  0.00    -0.030 C 
HETATM   21  C   UNL     1     -27.281  -6.235 -20.077  1.00  0.00    -0.027 C 
BRANCH  21  22
HETATM   22  C   UNL     1     -25.917  -6.765 -20.441  1.00  0.00    -0.001 C 
HETATM   23  C   UNL     1     -25.043  -6.864 -19.191  1.00  0.00     0.013 C 
HETATM   24  C   UNL     1     -26.043  -8.130 -21.119  1.00  0.00     0.013 C 
ENDBRANCH  21  22
ENDBRANCH  19  20
ENDBRANCH  18  19
ENDBRANCH  17  18
ENDBRANCH  16  17
ENDBRANCH   2  16
TORSDOF 10
ENDMDL
MODEL 5
REMARK VINA RESULT:      -6.9      2.323      2.741
REMARK  10 active torsions:
REMARK  status: ('A' for Active; 'I' for Inactive)
REMARK    1  A    between atoms: O_2  and  C_3 
REMARK    2  A    between atoms: C_5  and  C_6 
REMARK    3  A    between atoms: C_6  and  N_7 
REMARK       I    between atoms: N_7  and  C_8 
REMARK    4  A    between atoms: C_8  and  C_10 
REMARK    5  A    between atoms: C_10  and  C_11 
REMARK    6  A    between atoms: C_11  and  C_12 
REMARK    7  A    between atoms: C_12  and  C_13 
REMARK    8  A    between atoms: C_13  and  C_14 
REMARK    9  A    between atoms: C_15  and  C_16 
REMARK   10  A    between atoms: C_21  and  O_22 
ROOT
HETATM    1  N   UNL     1     -21.066  -7.514  -2.011  1.00  0.00    -0.357 N 
HETATM    2  C   UNL     1     -21.688  -6.449  -2.614  1.00  0.00     0.217 C 
HETATM    3  O   UNL     1     -22.662  -5.875  -2.133  1.00  0.00    -0.274 OA
HETATM    4  H   UNL     1     -20.309  -7.991  -2.482  1.00  0.00     0.162 HD
ENDROOT
BRANCH   1   5
HETATM    5  C   UNL     1     -21.528  -8.045  -0.749  1.00  0.00     0.161 C 
BRANCH   5   6
HETATM    6  C   UNL     1     -22.316  -9.318  -0.926  1.00  0.00    -0.038 A 
HETATM    7  C   UNL     1     -22.066 -10.175  -2.015  1.00  0.00     0.048 A 
HETATM    8  C   UNL     1     -22.752 -11.388  -2.151  1.00  0.00     0.101 A 
HETATM    9  C   UNL     1     -23.697 -11.739  -1.176  1.00  0.00     0.099 A 
HETATM   10  C   UNL     1     -23.954 -10.904  -0.090  1.00  0.00     0.040 A 
HETATM   11  C   UNL     1     -23.264  -9.698   0.034  1.00  0.00     0.012 A 
BRANCH   8  12
HETATM   12  O   UNL     1     -22.570 -12.288  -3.168  1.00  0.00    -0.353 OA
HETATM   13  C   UNL     1     -22.261 -11.769  -4.454  1.00  0.00     0.210 C 
ENDBRANCH   8  12
BRANCH   9  14
HETATM   14  O   UNL     1     -24.375 -12.925  -1.290  1.00  0.00    -0.358 OA
HETATM   15  H   UNL     1     -24.933 -12.898  -2.083  1.00  0.00     0.217 HD
ENDBRANCH   9  14
ENDBRANCH   5   6
ENDBRANCH   1   5
BRANCH   2  16
HETATM   16  C   UNL     1     -21.079  -6.053  -3.945  1.00  0.00     0.103 C 
BRANCH  16  17
HETATM   17  C   UNL     1     -21.792  -6.719  -5.122  1.00  0.00     0.010 C 
BRANCH  17  18
HETATM   18  C   UNL     1     -21.140  -6.366  -6.462  1.00  0.00     0.004 C 
BRANCH  18  19
HETATM   19  C   UNL     1     -20.941  -4.858  -6.599  1.00  0.00     0.027 C 
BRANCH  19  20
HETATM   20  C   UNL     1     -22.024  -4.252  -7.444  1.00  0.00    -0.030 C 
HETATM   21  C   UNL     1     -21.993  -4.225  -8.785  1.00  0.00    -0.027 C 
BRANCH  21  22
HETATM   22  C   UNL     1     -23.076  -3.612  -9.638  1.00  0.00    -0.001 C 
HETATM   23  C   UNL     1     -22.470  -3.031 -10.915  1.00  0.00     0.013 C 
HETATM   24  C   UNL     1     -24.139  -4.658  -9.973  1.00  0.00     0.013 C 
ENDBRANCH  21  22
ENDBRANCH  19  20
ENDBRANCH  18  19
ENDBRANCH  17  18
ENDBRANCH  16  17
ENDBRANCH   2  16
TORSDOF 10
ENDMDL
MODEL 6
REMARK VINA RESULT:      -6.9     13.987     16.642
REMARK  10 active torsions:
REMARK  status: ('A' for Active; 'I' for Inactive)
REMARK    1  A    between atoms: O_2  and  C_3 
REMARK    2  A    between atoms: C_5  and  C_6 
REMARK    3  A    between atoms: C_6  and  N_7 
REMARK       I    between atoms: N_7  and  C_8 
REMARK    4  A    between atoms: C_8  and  C_10 
REMARK    5  A    between atoms: C_10  and  C_11 
REMARK    6  A    between atoms: C_11  and  C_12 
REMARK    7  A    between atoms: C_12  and  C_13 
REMARK    8  A    between atoms: C_13  and  C_14 
REMARK    9  A    between atoms: C_15  and  C_16 
REMARK   10  A    between atoms: C_21  and  O_22 
ROOT
HETATM    1  N   UNL     1     -33.002  -4.587 -15.022  1.00  0.00    -0.357 N 
HETATM    2  C   UNL     1     -34.027  -3.905 -14.416  1.00  0.00     0.217 C 
HETATM    3  O   UNL     1     -34.677  -3.026 -14.977  1.00  0.00    -0.274 OA
HETATM    4  H   UNL     1     -32.456  -5.255 -14.493  1.00  0.00     0.162 HD
ENDROOT
BRANCH   1   5
HETATM    5  C   UNL     1     -32.609  -4.311 -16.384  1.00  0.00     0.161 C 
BRANCH   5   6
HETATM    6  C   UNL     1     -31.726  -5.395 -16.950  1.00  0.00    -0.038 A 
HETATM    7  C   UNL     1     -30.328  -5.336 -16.800  1.00  0.00     0.048 A 
HETATM    8  C   UNL     1     -29.508  -6.369 -17.270  1.00  0.00     0.101 A 
HETATM    9  C   UNL     1     -30.108  -7.472 -17.896  1.00  0.00     0.099 A 
HETATM   10  C   UNL     1     -31.491  -7.547 -18.049  1.00  0.00     0.040 A 
HETATM   11  C   UNL     1     -32.296  -6.511 -17.577  1.00  0.00     0.012 A 
BRANCH   8  12
HETATM   12  O   UNL     1     -28.142  -6.405 -17.161  1.00  0.00    -0.353 OA
HETATM   13  C   UNL     1     -27.595  -6.700 -15.883  1.00  0.00     0.210 C 
ENDBRANCH   8  12
BRANCH   9  14
HETATM   14  O   UNL     1     -29.322  -8.495 -18.357  1.00  0.00    -0.358 OA
HETATM   15  H   UNL     1     -29.665  -8.800 -19.212  1.00  0.00     0.217 HD
ENDBRANCH   9  14
ENDBRANCH   5   6
ENDBRANCH   1   5
BRANCH   2  16
HETATM   16  C   UNL     1     -34.274  -4.313 -12.978  1.00  0.00     0.103 C 
BRANCH  16  17
HETATM   17  C   UNL     1     -33.034  -4.121 -12.106  1.00  0.00     0.010 C 
BRANCH  17  18
HETATM   18  C   UNL     1     -33.136  -2.869 -11.229  1.00  0.00     0.004 C 
BRANCH  18  19
HETATM   19  C   UNL     1     -34.534  -2.728 -10.630  1.00  0.00     0.027 C 
BRANCH  19  20
HETATM   20  C   UNL     1     -35.271  -1.582 -11.260  1.00  0.00    -0.030 C 
HETATM   21  C   UNL     1     -34.770  -0.832 -12.253  1.00  0.00    -0.027 C 
BRANCH  21  22
HETATM   22  C   UNL     1     -35.505   0.324 -12.885  1.00  0.00    -0.001 C 
HETATM   23  C   UNL     1     -34.722   0.845 -14.090  1.00  0.00     0.013 C 
HETATM   24  C   UNL     1     -36.910  -0.109 -13.302  1.00  0.00     0.013 C 
ENDBRANCH  21  22
ENDBRANCH  19  20
ENDBRANCH  18  19
ENDBRANCH  17  18
ENDBRANCH  16  17
ENDBRANCH   2  16
TORSDOF 10
ENDMDL
MODEL 7
REMARK VINA RESULT:      -6.7      2.825      9.335
REMARK  10 active torsions:
REMARK  status: ('A' for Active; 'I' for Inactive)
REMARK    1  A    between atoms: O_2  and  C_3 
REMARK    2  A    between atoms: C_5  and  C_6 
REMARK    3  A    between atoms: C_6  and  N_7 
REMARK       I    between atoms: N_7  and  C_8 
REMARK    4  A    between atoms: C_8  and  C_10 
REMARK    5  A    between atoms: C_10  and  C_11 
REMARK    6  A    between atoms: C_11  and  C_12 
REMARK    7  A    between atoms: C_12  and  C_13 
REMARK    8  A    between atoms: C_13  and  C_14 
REMARK    9  A    between atoms: C_15  and  C_16 
REMARK   10  A    between atoms: C_21  and  O_22 
ROOT
HETATM    1  N   UNL     1     -21.435  -6.089  -5.838  1.00  0.00    -0.357 N 
HETATM    2  C   UNL     1     -21.202  -5.891  -4.500  1.00  0.00     0.217 C 
HETATM    3  O   UNL     1     -20.427  -5.042  -4.068  1.00  0.00    -0.274 OA
HETATM    4  H   UNL     1     -22.033  -6.846  -6.142  1.00  0.00     0.162 HD
ENDROOT
BRANCH   1   5
HETATM    5  C   UNL     1     -20.769  -5.298  -6.848  1.00  0.00     0.161 C 
BRANCH   5   6
HETATM    6  C   UNL     1     -21.746  -4.646  -7.792  1.00  0.00    -0.038 A 
HETATM    7  C   UNL     1     -21.309  -4.088  -9.009  1.00  0.00     0.048 A 
HETATM    8  C   UNL     1     -22.220  -3.536  -9.917  1.00  0.00     0.101 A 
HETATM    9  C   UNL     1     -23.584  -3.548  -9.594  1.00  0.00     0.099 A 
HETATM   10  C   UNL     1     -24.034  -4.100  -8.395  1.00  0.00     0.040 A 
HETATM   11  C   UNL     1     -23.116  -4.647  -7.499  1.00  0.00     0.012 A 
BRANCH   8  12
HETATM   12  O   UNL     1     -21.890  -2.981 -11.126  1.00  0.00    -0.353 OA
HETATM   13  C   UNL     1     -20.539  -2.588 -11.320  1.00  0.00     0.210 C 
ENDBRANCH   8  12
BRANCH   9  14
HETATM   14  O   UNL     1     -24.491  -3.016 -10.473  1.00  0.00    -0.358 OA
HETATM   15  H   UNL     1     -24.699  -2.108 -10.205  1.00  0.00     0.217 HD
ENDBRANCH   9  14
ENDBRANCH   5   6
ENDBRANCH   1   5
BRANCH   2  16
HETATM   16  C   UNL     1     -21.970  -6.834  -3.595  1.00  0.00     0.103 C 
BRANCH  16  17
HETATM   17  C   UNL     1     -21.981  -6.354  -2.144  1.00  0.00     0.010 C 
BRANCH  17  18
HETATM   18  C   UNL     1     -21.419  -7.408  -1.185  1.00  0.00     0.004 C 
BRANCH  18  19
HETATM   19  C   UNL     1     -22.519  -7.989  -0.299  1.00  0.00     0.027 C 
BRANCH  19  20
HETATM   20  C   UNL     1     -22.721  -9.449  -0.586  1.00  0.00    -0.030 C 
HETATM   21  C   UNL     1     -23.690 -10.189  -0.027  1.00  0.00    -0.027 C 
BRANCH  21  22
HETATM   22  C   UNL     1     -23.893 -11.657  -0.309  1.00  0.00    -0.001 C 
HETATM   23  C   UNL     1     -23.452 -11.980  -1.737  1.00  0.00     0.013 C 
HETATM   24  C   UNL     1     -23.115 -12.502   0.699  1.00  0.00     0.013 C 
ENDBRANCH  21  22
ENDBRANCH  19  20
ENDBRANCH  18  19
ENDBRANCH  17  18
ENDBRANCH  16  17
ENDBRANCH   2  16
TORSDOF 10
ENDMDL
MODEL 8
REMARK VINA RESULT:      -6.7      2.560      3.505
REMARK  10 active torsions:
REMARK  status: ('A' for Active; 'I' for Inactive)
REMARK    1  A    between atoms: O_2  and  C_3 
REMARK    2  A    between atoms: C_5  and  C_6 
REMARK    3  A    between atoms: C_6  and  N_7 
REMARK       I    between atoms: N_7  and  C_8 
REMARK    4  A    between atoms: C_8  and  C_10 
REMARK    5  A    between atoms: C_10  and  C_11 
REMARK    6  A    between atoms: C_11  and  C_12 
REMARK    7  A    between atoms: C_12  and  C_13 
REMARK    8  A    between atoms: C_13  and  C_14 
REMARK    9  A    between atoms: C_15  and  C_16 
REMARK   10  A    between atoms: C_21  and  O_22 
ROOT
HETATM    1  N   UNL     1     -21.017  -8.028  -0.958  1.00  0.00    -0.357 N 
HETATM    2  C   UNL     1     -21.858  -7.013  -1.340  1.00  0.00     0.217 C 
HETATM    3  O   UNL     1     -22.873  -6.707  -0.718  1.00  0.00    -0.274 OA
HETATM    4  H   UNL     1     -20.231  -8.281  -1.542  1.00  0.00     0.162 HD
ENDROOT
BRANCH   1   5
HETATM    5  C   UNL     1     -21.276  -8.822   0.221  1.00  0.00     0.161 C 
BRANCH   5   6
HETATM    6  C   UNL     1     -22.006 -10.100  -0.107  1.00  0.00    -0.038 A 
HETATM    7  C   UNL     1     -21.308 -11.317  -0.230  1.00  0.00     0.048 A 
HETATM    8  C   UNL     1     -21.987 -12.517  -0.474  1.00  0.00     0.101 A 
HETATM    9  C   UNL     1     -23.385 -12.486  -0.594  1.00  0.00     0.099 A 
HETATM   10  C   UNL     1     -24.091 -11.290  -0.472  1.00  0.00     0.040 A 
HETATM   11  C   UNL     1     -23.402 -10.102  -0.229  1.00  0.00     0.012 A 
BRANCH   8  12
HETATM   12  O   UNL     1     -21.397 -13.747  -0.599  1.00  0.00    -0.353 OA
HETATM   13  C   UNL     1     -20.400 -14.093   0.351  1.00  0.00     0.210 C 
ENDBRANCH   8  12
BRANCH   9  14
HETATM   14  O   UNL     1     -24.067 -13.651  -0.829  1.00  0.00    -0.358 OA
HETATM   15  H   UNL     1     -24.539 -13.579  -1.673  1.00  0.00     0.217 HD
ENDBRANCH   9  14
ENDBRANCH   5   6
ENDBRANCH   1   5
BRANCH   2  16
HETATM   16  C   UNL     1     -21.438  -6.312  -2.617  1.00  0.00     0.103 C 
BRANCH  16  17
HETATM   17  C   UNL     1     -21.521  -7.236  -3.832  1.00  0.00     0.010 C 
BRANCH  17  18
HETATM   18  C   UNL     1     -21.668  -6.454  -5.140  1.00  0.00     0.004 C 
BRANCH  18  19
HETATM   19  C   UNL     1     -20.685  -5.286  -5.198  1.00  0.00     0.027 C 
BRANCH  19  20
HETATM   20  C   UNL     1     -20.619  -4.712  -6.584  1.00  0.00    -0.030 C 
HETATM   21  C   UNL     1     -21.679  -4.626  -7.403  1.00  0.00    -0.027 C 
BRANCH  21  22
HETATM   22  C   UNL     1     -21.616  -4.054  -8.798  1.00  0.00    -0.001 C 
HETATM   23  C   UNL     1     -20.291  -4.433  -9.459  1.00  0.00     0.013 C 
HETATM   24  C   UNL     1     -22.796  -4.556  -9.628  1.00  0.00     0.013 C 
ENDBRANCH  21  22
ENDBRANCH  19  20
ENDBRANCH  18  19
ENDBRANCH  17  18
ENDBRANCH  16  17
ENDBRANCH   2  16
TORSDOF 10
ENDMDL
MODEL 9
REMARK VINA RESULT:      -6.5      2.504      8.664
REMARK  10 active torsions:
REMARK  status: ('A' for Active; 'I' for Inactive)
REMARK    1  A    between atoms: O_2  and  C_3 
REMARK    2  A    between atoms: C_5  and  C_6 
REMARK    3  A    between atoms: C_6  and  N_7 
REMARK       I    between atoms: N_7  and  C_8 
REMARK    4  A    between atoms: C_8  and  C_10 
REMARK    5  A    between atoms: C_10  and  C_11 
REMARK    6  A    between atoms: C_11  and  C_12 
REMARK    7  A    between atoms: C_12  and  C_13 
REMARK    8  A    between atoms: C_13  and  C_14 
REMARK    9  A    between atoms: C_15  and  C_16 
REMARK   10  A    between atoms: C_21  and  O_22 
ROOT
HETATM    1  N   UNL     1     -21.614  -6.938  -3.880  1.00  0.00    -0.357 N 
HETATM    2  C   UNL     1     -21.435  -8.261  -3.559  1.00  0.00     0.217 C 
HETATM    3  O   UNL     1     -21.901  -9.184  -4.222  1.00  0.00    -0.274 OA
HETATM    4  H   UNL     1     -21.265  -6.216  -3.263  1.00  0.00     0.162 HD
ENDROOT
BRANCH   1   5
HETATM    5  C   UNL     1     -22.379  -6.536  -5.038  1.00  0.00     0.161 C 
BRANCH   5   6
HETATM    6  C   UNL     1     -21.539  -5.777  -6.034  1.00  0.00    -0.038 A 
HETATM    7  C   UNL     1     -22.038  -5.477  -7.316  1.00  0.00     0.048 A 
HETATM    8  C   UNL     1     -21.288  -4.721  -8.224  1.00  0.00     0.101 A 
HETATM    9  C   UNL     1     -20.022  -4.261  -7.832  1.00  0.00     0.099 A 
HETATM   10  C   UNL     1     -19.515  -4.546  -6.565  1.00  0.00     0.040 A 
HETATM   11  C   UNL     1     -20.273  -5.301  -5.670  1.00  0.00     0.012 A 
BRANCH   8  12
HETATM   12  O   UNL     1     -21.693  -4.372  -9.486  1.00  0.00    -0.353 OA
HETATM   13  C   UNL     1     -22.937  -3.698  -9.611  1.00  0.00     0.210 C 
ENDBRANCH   8  12
BRANCH   9  14
HETATM   14  O   UNL     1     -19.275  -3.515  -8.705  1.00  0.00    -0.358 OA
HETATM   15  H   UNL     1     -18.508  -3.149  -8.237  1.00  0.00     0.217 HD
ENDBRANCH   9  14
ENDBRANCH   5   6
ENDBRANCH   1   5
BRANCH   2  16
HETATM   16  C   UNL     1     -20.630  -8.485  -2.295  1.00  0.00     0.103 C 
BRANCH  16  17
HETATM   17  C   UNL     1     -20.923  -7.426  -1.233  1.00  0.00     0.010 C 
BRANCH  17  18
HETATM   18  C   UNL     1     -22.410  -7.370  -0.871  1.00  0.00     0.004 C 
BRANCH  18  19
HETATM   19  C   UNL     1     -22.676  -8.038   0.477  1.00  0.00     0.027 C 
BRANCH  19  20
HETATM   20  C   UNL     1     -23.467  -9.301   0.300  1.00  0.00    -0.030 C 
HETATM   21  C   UNL     1     -22.941 -10.452  -0.149  1.00  0.00    -0.027 C 
BRANCH  21  22
HETATM   22  C   UNL     1     -23.734 -11.721  -0.332  1.00  0.00    -0.001 C 
HETATM   23  C   UNL     1     -23.391 -12.363  -1.676  1.00  0.00     0.013 C 
HETATM   24  C   UNL     1     -23.452 -12.691   0.815  1.00  0.00     0.013 C 
ENDBRANCH  21  22
ENDBRANCH  19  20
ENDBRANCH  18  19
ENDBRANCH  17  18
ENDBRANCH  16  17
ENDBRANCH   2  16
TORSDOF 10
ENDMDL
