MODEL 1
REMARK VINA RESULT:      -7.6      0.000      0.000
REMARK  18 active torsions:
REMARK  status: ('A' for Active; 'I' for Inactive)
REMARK    1  A    between atoms: C_2  and  C_3 
REMARK    2  A    between atoms: C_3  and  C_4 
REMARK    3  A    between atoms: C_4  and  C_5 
REMARK    4  A    between atoms: C_5  and  C_6 
REMARK    5  A    between atoms: C_7  and  C_8 
REMARK    6  A    between atoms: C_8  and  C_9 
REMARK    7  A    between atoms: C_10  and  C_11 
REMARK    8  A    between atoms: C_11  and  C_12 
REMARK    9  A    between atoms: C_13  and  C_14 
REMARK   10  A    between atoms: C_14  and  C_15 
REMARK   11  A    between atoms: C_16  and  C_17 
REMARK   12  A    between atoms: C_17  and  C_18 
REMARK   13  A    between atoms: C_18  and  C_19 
REMARK   14  A    between atoms: C_19  and  C_20 
REMARK       I    between atoms: C_20  and  N_22 
REMARK   15  A    between atoms: N_22  and  C_23 
REMARK   16  A    between atoms: C_23  and  C_24 
REMARK   17  A    between atoms: C_27  and  O_28 
REMARK   18  A    between atoms: C_29  and  O_30 
ROOT
HETATM    1  C   UNL     1     -21.248  -6.054  -3.059  1.00  0.00     0.027 C 
ENDROOT
BRANCH   1   2
HETATM    2  C   UNL     1     -21.485  -7.068  -1.977  1.00  0.00    -0.030 C 
HETATM    3  C   UNL     1     -22.287  -6.842  -0.920  1.00  0.00    -0.027 C 
BRANCH   3   4
HETATM    4  C   UNL     1     -22.517  -7.825   0.182  1.00  0.00     0.053 C 
BRANCH   4   5
HETATM    5  C   UNL     1     -22.744  -9.210  -0.347  1.00  0.00    -0.027 C 
HETATM    6  C   UNL     1     -23.725 -10.014   0.095  1.00  0.00    -0.027 C 
BRANCH   6   7
HETATM    7  C   UNL     1     -23.957 -11.411  -0.399  1.00  0.00     0.053 C 
BRANCH   7   8
HETATM    8  C   UNL     1     -23.070 -11.741  -1.561  1.00  0.00    -0.027 C 
HETATM    9  C   UNL     1     -23.399 -11.463  -2.832  1.00  0.00    -0.027 C 
BRANCH   9  10
HETATM   10  C   UNL     1     -22.539 -11.818  -4.008  1.00  0.00     0.053 C 
BRANCH  10  11
HETATM   11  C   UNL     1     -21.107 -11.468  -3.744  1.00  0.00    -0.027 C 
HETATM   12  C   UNL     1     -20.645 -10.209  -3.713  1.00  0.00    -0.030 C 
BRANCH  12  13
HETATM   13  C   UNL     1     -19.215  -9.859  -3.436  1.00  0.00     0.027 C 
BRANCH  13  14
HETATM   14  C   UNL     1     -18.289 -11.029  -3.768  1.00  0.00     0.004 C 
BRANCH  14  15
HETATM   15  C   UNL     1     -17.048 -10.536  -4.510  1.00  0.00    -0.000 C 
BRANCH  15  16
HETATM   16  C   UNL     1     -15.881 -10.310  -3.554  1.00  0.00    -0.005 C 
HETATM   17  C   UNL     1     -14.908 -11.476  -3.598  1.00  0.00     0.005 C 
ENDBRANCH  15  16
ENDBRANCH  14  15
ENDBRANCH  13  14
ENDBRANCH  12  13
ENDBRANCH  10  11
ENDBRANCH   9  10
ENDBRANCH   7   8
ENDBRANCH   6   7
ENDBRANCH   4   5
ENDBRANCH   3   4
ENDBRANCH   1   2
BRANCH   1  18
HETATM   18  C   UNL     1     -21.548  -6.587  -4.468  1.00  0.00     0.013 C 
BRANCH  18  19
HETATM   19  C   UNL     1     -20.290  -6.745  -5.330  1.00  0.00     0.103 C 
BRANCH  19  20
HETATM   20  C   UNL     1     -20.147  -5.597  -6.308  1.00  0.00     0.217 C 
HETATM   21  O   UNL     1     -19.718  -4.497  -5.971  1.00  0.00    -0.274 OA
HETATM   22  N   UNL     1     -20.520  -5.888  -7.595  1.00  0.00    -0.357 N 
HETATM   23  H   UNL     1     -20.843  -6.817  -7.828  1.00  0.00     0.162 HD
BRANCH  22  24
HETATM   24  C   UNL     1     -20.466  -4.892  -8.644  1.00  0.00     0.161 C 
BRANCH  24  25
HETATM   25  C   UNL     1     -21.854  -4.442  -9.015  1.00  0.00    -0.038 A 
HETATM   26  C   UNL     1     -22.910  -4.639  -8.122  1.00  0.00     0.012 A 
HETATM   27  C   UNL     1     -24.171  -4.131  -8.410  1.00  0.00     0.040 A 
HETATM   28  C   UNL     1     -24.402  -3.427  -9.595  1.00  0.00     0.099 A 
HETATM   29  C   UNL     1     -23.369  -3.241 -10.515  1.00  0.00     0.101 A 
HETATM   30  C   UNL     1     -22.096  -3.760 -10.219  1.00  0.00     0.048 A 
BRANCH  28  31
HETATM   31  O   UNL     1     -25.650  -2.914  -9.801  1.00  0.00    -0.358 OA
HETATM   32  H   UNL     1     -25.647  -2.380 -10.611  1.00  0.00     0.217 HD
ENDBRANCH  28  31
BRANCH  29  33
HETATM   33  O   UNL     1     -23.424  -2.586 -11.721  1.00  0.00    -0.353 OA
HETATM   34  C   UNL     1     -24.490  -2.929 -12.599  1.00  0.00     0.210 C 
ENDBRANCH  29  33
ENDBRANCH  24  25
ENDBRANCH  22  24
ENDBRANCH  19  20
ENDBRANCH  18  19
ENDBRANCH   1  18
TORSDOF 18
ENDMDL
MODEL 2
REMARK VINA RESULT:      -7.6      3.509      8.403
REMARK  18 active torsions:
REMARK  status: ('A' for Active; 'I' for Inactive)
REMARK    1  A    between atoms: C_2  and  C_3 
REMARK    2  A    between atoms: C_3  and  C_4 
REMARK    3  A    between atoms: C_4  and  C_5 
REMARK    4  A    between atoms: C_5  and  C_6 
REMARK    5  A    between atoms: C_7  and  C_8 
REMARK    6  A    between atoms: C_8  and  C_9 
REMARK    7  A    between atoms: C_10  and  C_11 
REMARK    8  A    between atoms: C_11  and  C_12 
REMARK    9  A    between atoms: C_13  and  C_14 
REMARK   10  A    between atoms: C_14  and  C_15 
REMARK   11  A    between atoms: C_16  and  C_17 
REMARK   12  A    between atoms: C_17  and  C_18 
REMARK   13  A    between atoms: C_18  and  C_19 
REMARK   14  A    between atoms: C_19  and  C_20 
REMARK       I    between atoms: C_20  and  N_22 
REMARK   15  A    between atoms: N_22  and  C_23 
REMARK   16  A    between atoms: C_23  and  C_24 
REMARK   17  A    between atoms: C_27  and  O_28 
REMARK   18  A    between atoms: C_29  and  O_30 
ROOT
HETATM    1  C   UNL     1     -20.893 -12.698  -0.804  1.00  0.00     0.027 C 
ENDROOT
BRANCH   1   2
HETATM    2  C   UNL     1     -20.656 -11.355  -0.174  1.00  0.00    -0.030 C 
HETATM    3  C   UNL     1     -21.611 -10.413  -0.072  1.00  0.00    -0.027 C 
BRANCH   3   4
HETATM    4  C   UNL     1     -21.392  -9.061   0.527  1.00  0.00     0.053 C 
BRANCH   4   5
HETATM    5  C   UNL     1     -21.284  -7.998  -0.526  1.00  0.00    -0.027 C 
HETATM    6  C   UNL     1     -22.290  -7.161  -0.831  1.00  0.00    -0.027 C 
BRANCH   6   7
HETATM    7  C   UNL     1     -22.216  -6.107  -1.895  1.00  0.00     0.053 C 
BRANCH   7   8
HETATM    8  C   UNL     1     -21.264  -6.491  -2.987  1.00  0.00    -0.027 C 
HETATM    9  C   UNL     1     -21.657  -6.726  -4.249  1.00  0.00    -0.027 C 
BRANCH   9  10
HETATM   10  C   UNL     1     -20.724  -7.144  -5.345  1.00  0.00     0.053 C 
BRANCH  10  11
HETATM   11  C   UNL     1     -20.468  -6.008  -6.287  1.00  0.00    -0.027 C 
HETATM   12  C   UNL     1     -21.311  -4.977  -6.451  1.00  0.00    -0.030 C 
BRANCH  12  13
HETATM   13  C   UNL     1     -21.049  -3.834  -7.384  1.00  0.00     0.027 C 
BRANCH  13  14
HETATM   14  C   UNL     1     -20.848  -4.329  -8.816  1.00  0.00     0.004 C 
BRANCH  14  15
HETATM   15  C   UNL     1     -22.191  -4.679  -9.454  1.00  0.00    -0.000 C 
BRANCH  15  16
HETATM   16  C   UNL     1     -22.802  -3.473 -10.160  1.00  0.00    -0.005 C 
HETATM   17  C   UNL     1     -24.317  -3.483 -10.040  1.00  0.00     0.005 C 
ENDBRANCH  15  16
ENDBRANCH  14  15
ENDBRANCH  13  14
ENDBRANCH  12  13
ENDBRANCH  10  11
ENDBRANCH   9  10
ENDBRANCH   7   8
ENDBRANCH   6   7
ENDBRANCH   4   5
ENDBRANCH   3   4
ENDBRANCH   1   2
BRANCH   1  18
HETATM   18  C   UNL     1     -22.362 -12.940  -1.184  1.00  0.00     0.013 C 
BRANCH  18  19
HETATM   19  C   UNL     1     -22.565 -13.158  -2.688  1.00  0.00     0.103 C 
BRANCH  19  20
HETATM   20  C   UNL     1     -22.193 -11.919  -3.476  1.00  0.00     0.217 C 
HETATM   21  O   UNL     1     -22.839 -10.877  -3.406  1.00  0.00    -0.274 OA
HETATM   22  N   UNL     1     -21.074 -12.049  -4.259  1.00  0.00    -0.357 N 
HETATM   23  H   UNL     1     -20.561 -12.920  -4.263  1.00  0.00     0.162 HD
BRANCH  22  24
HETATM   24  C   UNL     1     -20.600 -10.964  -5.092  1.00  0.00     0.161 C 
BRANCH  24  25
HETATM   25  C   UNL     1     -19.343 -10.369  -4.514  1.00  0.00    -0.038 A 
HETATM   26  C   UNL     1     -19.364  -9.808  -3.235  1.00  0.00     0.012 A 
HETATM   27  C   UNL     1     -18.186  -9.355  -2.653  1.00  0.00     0.040 A 
HETATM   28  C   UNL     1     -16.972  -9.446  -3.338  1.00  0.00     0.099 A 
HETATM   29  C   UNL     1     -16.931  -9.977  -4.628  1.00  0.00     0.101 A 
HETATM   30  C   UNL     1     -18.126 -10.432  -5.213  1.00  0.00     0.048 A 
BRANCH  28  31
HETATM   31  O   UNL     1     -15.842  -9.025  -2.697  1.00  0.00    -0.358 OA
HETATM   32  H   UNL     1     -15.804  -9.431  -1.816  1.00  0.00     0.217 HD
ENDBRANCH  28  31
BRANCH  29  33
HETATM   33  O   UNL     1     -15.833 -10.132  -5.440  1.00  0.00    -0.353 OA
HETATM   34  C   UNL     1     -15.356 -11.458  -5.640  1.00  0.00     0.210 C 
ENDBRANCH  29  33
ENDBRANCH  24  25
ENDBRANCH  22  24
ENDBRANCH  19  20
ENDBRANCH  18  19
ENDBRANCH   1  18
TORSDOF 18
ENDMDL
MODEL 3
REMARK VINA RESULT:      -7.6     12.238     16.441
REMARK  18 active torsions:
REMARK  status: ('A' for Active; 'I' for Inactive)
REMARK    1  A    between atoms: C_2  and  C_3 
REMARK    2  A    between atoms: C_3  and  C_4 
REMARK    3  A    between atoms: C_4  and  C_5 
REMARK    4  A    between atoms: C_5  and  C_6 
REMARK    5  A    between atoms: C_7  and  C_8 
REMARK    6  A    between atoms: C_8  and  C_9 
REMARK    7  A    between atoms: C_10  and  C_11 
REMARK    8  A    between atoms: C_11  and  C_12 
REMARK    9  A    between atoms: C_13  and  C_14 
REMARK   10  A    between atoms: C_14  and  C_15 
REMARK   11  A    between atoms: C_16  and  C_17 
REMARK   12  A    between atoms: C_17  and  C_18 
REMARK   13  A    between atoms: C_18  and  C_19 
REMARK   14  A    between atoms: C_19  and  C_20 
REMARK       I    between atoms: C_20  and  N_22 
REMARK   15  A    between atoms: N_22  and  C_23 
REMARK   16  A    between atoms: C_23  and  C_24 
REMARK   17  A    between atoms: C_27  and  O_28 
REMARK   18  A    between atoms: C_29  and  O_30 
ROOT
HETATM    1  C   UNL     1     -31.488  -4.837 -16.895  1.00  0.00     0.027 C 
ENDROOT
BRANCH   1   2
HETATM    2  C   UNL     1     -32.856  -4.333 -16.535  1.00  0.00    -0.030 C 
HETATM    3  C   UNL     1     -33.434  -3.281 -17.143  1.00  0.00    -0.027 C 
BRANCH   3   4
HETATM    4  C   UNL     1     -34.783  -2.744 -16.785  1.00  0.00     0.053 C 
BRANCH   4   5
HETATM    5  C   UNL     1     -34.691  -1.392 -16.143  1.00  0.00    -0.027 C 
HETATM    6  C   UNL     1     -35.763  -0.623 -15.892  1.00  0.00    -0.027 C 
BRANCH   6   7
HETATM    7  C   UNL     1     -35.696   0.742 -15.276  1.00  0.00     0.053 C 
BRANCH   7   8
HETATM    8  C   UNL     1     -35.613   0.670 -13.781  1.00  0.00    -0.027 C 
HETATM    9  C   UNL     1     -36.399  -0.131 -13.044  1.00  0.00    -0.027 C 
BRANCH   9  10
HETATM   10  C   UNL     1     -36.354  -0.191 -11.547  1.00  0.00     0.053 C 
BRANCH  10  11
HETATM   11  C   UNL     1     -35.610  -1.406 -11.086  1.00  0.00    -0.027 C 
HETATM   12  C   UNL     1     -34.292  -1.582 -11.269  1.00  0.00    -0.030 C 
BRANCH  12  13
HETATM   13  C   UNL     1     -33.547  -2.793 -10.796  1.00  0.00     0.027 C 
BRANCH  13  14
HETATM   14  C   UNL     1     -33.207  -3.719 -11.963  1.00  0.00     0.004 C 
BRANCH  14  15
HETATM   15  C   UNL     1     -33.201  -5.177 -11.506  1.00  0.00    -0.000 C 
BRANCH  15  16
HETATM   16  C   UNL     1     -34.304  -5.444 -10.486  1.00  0.00    -0.005 C 
HETATM   17  C   UNL     1     -34.539  -6.936 -10.318  1.00  0.00     0.005 C 
ENDBRANCH  15  16
ENDBRANCH  14  15
ENDBRANCH  13  14
ENDBRANCH  12  13
ENDBRANCH  10  11
ENDBRANCH   9  10
ENDBRANCH   7   8
ENDBRANCH   6   7
ENDBRANCH   4   5
ENDBRANCH   3   4
ENDBRANCH   1   2
BRANCH   1  18
HETATM   18  C   UNL     1     -31.480  -6.306 -17.346  1.00  0.00     0.013 C 
BRANCH  18  19
HETATM   19  C   UNL     1     -30.186  -6.707 -18.064  1.00  0.00     0.103 C 
BRANCH  19  20
HETATM   20  C   UNL     1     -29.179  -7.290 -17.092  1.00  0.00     0.217 C 
HETATM   21  O   UNL     1     -29.242  -8.452 -16.699  1.00  0.00    -0.274 OA
HETATM   22  N   UNL     1     -28.189  -6.425 -16.702  1.00  0.00    -0.357 N 
HETATM   23  H   UNL     1     -28.166  -5.485 -17.075  1.00  0.00     0.162 HD
BRANCH  22  24
HETATM   24  C   UNL     1     -27.164  -6.820 -15.760  1.00  0.00     0.161 C 
BRANCH  24  25
HETATM   25  C   UNL     1     -25.818  -6.856 -16.432  1.00  0.00    -0.038 A 
HETATM   26  C   UNL     1     -24.668  -7.084 -15.674  1.00  0.00     0.012 A 
HETATM   27  C   UNL     1     -23.435  -7.225 -16.300  1.00  0.00     0.040 A 
HETATM   28  C   UNL     1     -23.328  -7.133 -17.690  1.00  0.00     0.099 A 
HETATM   29  C   UNL     1     -24.459  -6.878 -18.468  1.00  0.00     0.101 A 
HETATM   30  C   UNL     1     -25.703  -6.734 -17.827  1.00  0.00     0.048 A 
BRANCH  28  31
HETATM   31  O   UNL     1     -22.098  -7.325 -18.251  1.00  0.00    -0.358 OA
HETATM   32  H   UNL     1     -21.495  -6.628 -17.949  1.00  0.00     0.217 HD
ENDBRANCH  28  31
BRANCH  29  33
HETATM   33  O   UNL     1     -24.531  -6.751 -19.833  1.00  0.00    -0.353 OA
HETATM   34  C   UNL     1     -25.795  -6.986 -20.443  1.00  0.00     0.210 C 
ENDBRANCH  29  33
ENDBRANCH  24  25
ENDBRANCH  22  24
ENDBRANCH  19  20
ENDBRANCH  18  19
ENDBRANCH   1  18
TORSDOF 18
ENDMDL
MODEL 4
REMARK VINA RESULT:      -7.6      2.008      3.121
REMARK  18 active torsions:
REMARK  status: ('A' for Active; 'I' for Inactive)
REMARK    1  A    between atoms: C_2  and  C_3 
REMARK    2  A    between atoms: C_3  and  C_4 
REMARK    3  A    between atoms: C_4  and  C_5 
REMARK    4  A    between atoms: C_5  and  C_6 
REMARK    5  A    between atoms: C_7  and  C_8 
REMARK    6  A    between atoms: C_8  and  C_9 
REMARK    7  A    between atoms: C_10  and  C_11 
REMARK    8  A    between atoms: C_11  and  C_12 
REMARK    9  A    between atoms: C_13  and  C_14 
REMARK   10  A    between atoms: C_14  and  C_15 
REMARK   11  A    between atoms: C_16  and  C_17 
REMARK   12  A    between atoms: C_17  and  C_18 
REMARK   13  A    between atoms: C_18  and  C_19 
REMARK   14  A    between atoms: C_19  and  C_20 
REMARK       I    between atoms: C_20  and  N_22 
REMARK   15  A    between atoms: N_22  and  C_23 
REMARK   16  A    between atoms: C_23  and  C_24 
REMARK   17  A    between atoms: C_27  and  O_28 
REMARK   18  A    between atoms: C_29  and  O_30 
ROOT
HETATM    1  C   UNL     1     -22.276  -5.967  -1.986  1.00  0.00     0.027 C 
ENDROOT
BRANCH   1   2
HETATM    2  C   UNL     1     -22.286  -7.064  -0.959  1.00  0.00    -0.030 C 
HETATM    3  C   UNL     1     -21.240  -7.886  -0.753  1.00  0.00    -0.027 C 
BRANCH   3   4
HETATM    4  C   UNL     1     -21.235  -9.000   0.243  1.00  0.00     0.053 C 
BRANCH   4   5
HETATM    5  C   UNL     1     -22.521  -9.773   0.220  1.00  0.00    -0.027 C 
HETATM    6  C   UNL     1     -22.572 -11.115   0.209  1.00  0.00    -0.027 C 
BRANCH   6   7
HETATM    7  C   UNL     1     -23.842 -11.910   0.161  1.00  0.00     0.053 C 
BRANCH   7   8
HETATM    8  C   UNL     1     -23.883 -12.815  -1.034  1.00  0.00    -0.027 C 
HETATM    9  C   UNL     1     -24.020 -14.147  -0.936  1.00  0.00    -0.027 C 
BRANCH   9  10
HETATM   10  C   UNL     1     -24.028 -15.069  -2.118  1.00  0.00     0.053 C 
BRANCH  10  11
HETATM   11  C   UNL     1     -22.823 -14.841  -2.977  1.00  0.00    -0.027 C 
HETATM   12  C   UNL     1     -22.843 -14.107  -4.101  1.00  0.00    -0.030 C 
BRANCH  12  13
HETATM   13  C   UNL     1     -21.634 -13.869  -4.954  1.00  0.00     0.027 C 
BRANCH  13  14
HETATM   14  C   UNL     1     -21.253 -12.389  -4.964  1.00  0.00     0.004 C 
BRANCH  14  15
HETATM   15  C   UNL     1     -22.417 -11.532  -4.469  1.00  0.00    -0.000 C 
BRANCH  15  16
HETATM   16  C   UNL     1     -21.964 -10.543  -3.399  1.00  0.00    -0.005 C 
HETATM   17  C   UNL     1     -20.475 -10.684  -3.124  1.00  0.00     0.005 C 
ENDBRANCH  15  16
ENDBRANCH  14  15
ENDBRANCH  13  14
ENDBRANCH  12  13
ENDBRANCH  10  11
ENDBRANCH   9  10
ENDBRANCH   7   8
ENDBRANCH   6   7
ENDBRANCH   4   5
ENDBRANCH   3   4
ENDBRANCH   1   2
BRANCH   1  18
HETATM   18  C   UNL     1     -21.361  -6.264  -3.184  1.00  0.00     0.013 C 
BRANCH  18  19
HETATM   19  C   UNL     1     -22.103  -6.908  -4.361  1.00  0.00     0.103 C 
BRANCH  19  20
HETATM   20  C   UNL     1     -21.217  -6.994  -5.587  1.00  0.00     0.217 C 
HETATM   21  O   UNL     1     -20.729  -8.053  -5.972  1.00  0.00    -0.274 OA
HETATM   22  N   UNL     1     -21.016  -5.802  -6.236  1.00  0.00    -0.357 N 
HETATM   23  H   UNL     1     -21.462  -4.962  -5.894  1.00  0.00     0.162 HD
BRANCH  22  24
HETATM   24  C   UNL     1     -20.176  -5.710  -7.410  1.00  0.00     0.161 C 
BRANCH  24  25
HETATM   25  C   UNL     1     -20.835  -4.859  -8.463  1.00  0.00    -0.038 A 
HETATM   26  C   UNL     1     -20.051  -4.085  -9.322  1.00  0.00     0.012 A 
HETATM   27  C   UNL     1     -20.644  -3.382 -10.363  1.00  0.00     0.040 A 
HETATM   28  C   UNL     1     -22.026  -3.433 -10.561  1.00  0.00     0.099 A 
HETATM   29  C   UNL     1     -22.833  -4.177  -9.699  1.00  0.00     0.101 A 
HETATM   30  C   UNL     1     -22.227  -4.884  -8.645  1.00  0.00     0.048 A 
BRANCH  28  31
HETATM   31  O   UNL     1     -22.545  -2.756 -11.628  1.00  0.00    -0.358 OA
HETATM   32  H   UNL     1     -22.970  -1.942 -11.316  1.00  0.00     0.217 HD
ENDBRANCH  28  31
BRANCH  29  33
HETATM   33  O   UNL     1     -24.198  -4.328  -9.744  1.00  0.00    -0.353 OA
HETATM   34  C   UNL     1     -24.989  -3.188  -9.429  1.00  0.00     0.210 C 
ENDBRANCH  29  33
ENDBRANCH  24  25
ENDBRANCH  22  24
ENDBRANCH  19  20
ENDBRANCH  18  19
ENDBRANCH   1  18
TORSDOF 18
ENDMDL
MODEL 5
REMARK VINA RESULT:      -7.5      3.378      6.099
REMARK  18 active torsions:
REMARK  status: ('A' for Active; 'I' for Inactive)
REMARK    1  A    between atoms: C_2  and  C_3 
REMARK    2  A    between atoms: C_3  and  C_4 
REMARK    3  A    between atoms: C_4  and  C_5 
REMARK    4  A    between atoms: C_5  and  C_6 
REMARK    5  A    between atoms: C_7  and  C_8 
REMARK    6  A    between atoms: C_8  and  C_9 
REMARK    7  A    between atoms: C_10  and  C_11 
REMARK    8  A    between atoms: C_11  and  C_12 
REMARK    9  A    between atoms: C_13  and  C_14 
REMARK   10  A    between atoms: C_14  and  C_15 
REMARK   11  A    between atoms: C_16  and  C_17 
REMARK   12  A    between atoms: C_17  and  C_18 
REMARK   13  A    between atoms: C_18  and  C_19 
REMARK   14  A    between atoms: C_19  and  C_20 
REMARK       I    between atoms: C_20  and  N_22 
REMARK   15  A    between atoms: N_22  and  C_23 
REMARK   16  A    between atoms: C_23  and  C_24 
REMARK   17  A    between atoms: C_27  and  O_28 
REMARK   18  A    between atoms: C_29  and  O_30 
ROOT
HETATM    1  C   UNL     1     -21.583  -5.932  -2.607  1.00  0.00     0.027 C 
ENDROOT
BRANCH   1   2
HETATM    2  C   UNL     1     -22.258  -6.377  -1.341  1.00  0.00    -0.030 C 
HETATM    3  C   UNL     1     -21.928  -7.508  -0.692  1.00  0.00    -0.027 C 
BRANCH   3   4
HETATM    4  C   UNL     1     -22.602  -7.985   0.554  1.00  0.00     0.053 C 
BRANCH   4   5
HETATM    5  C   UNL     1     -23.519  -9.142   0.283  1.00  0.00    -0.027 C 
HETATM    6  C   UNL     1     -23.097 -10.308  -0.233  1.00  0.00    -0.027 C 
BRANCH   6   7
HETATM    7  C   UNL     1     -23.996 -11.469  -0.536  1.00  0.00     0.053 C 
BRANCH   7   8
HETATM    8  C   UNL     1     -23.471 -12.743   0.054  1.00  0.00    -0.027 C 
HETATM    9  C   UNL     1     -24.045 -13.938  -0.161  1.00  0.00    -0.027 C 
BRANCH   9  10
HETATM   10  C   UNL     1     -23.554 -15.216   0.449  1.00  0.00     0.053 C 
BRANCH  10  11
HETATM   11  C   UNL     1     -23.913 -15.284   1.901  1.00  0.00    -0.027 C 
HETATM   12  C   UNL     1     -23.010 -15.203   2.892  1.00  0.00    -0.030 C 
BRANCH  12  13
HETATM   13  C   UNL     1     -23.371 -15.257   4.345  1.00  0.00     0.027 C 
BRANCH  13  14
HETATM   14  C   UNL     1     -24.884 -15.165   4.539  1.00  0.00     0.004 C 
BRANCH  14  15
HETATM   15  C   UNL     1     -25.346 -16.144   5.617  1.00  0.00    -0.000 C 
BRANCH  15  16
HETATM   16  C   UNL     1     -26.317 -15.481   6.591  1.00  0.00    -0.005 C 
HETATM   17  C   UNL     1     -27.034 -14.314   5.933  1.00  0.00     0.005 C 
ENDBRANCH  15  16
ENDBRANCH  14  15
ENDBRANCH  13  14
ENDBRANCH  12  13
ENDBRANCH  10  11
ENDBRANCH   9  10
ENDBRANCH   7   8
ENDBRANCH   6   7
ENDBRANCH   4   5
ENDBRANCH   3   4
ENDBRANCH   1   2
BRANCH   1  18
HETATM   18  C   UNL     1     -21.574  -7.010  -3.702  1.00  0.00     0.013 C 
BRANCH  18  19
HETATM   19  C   UNL     1     -22.218  -6.539  -5.012  1.00  0.00     0.103 C 
BRANCH  19  20
HETATM   20  C   UNL     1     -21.193  -6.448  -6.125  1.00  0.00     0.217 C 
HETATM   21  O   UNL     1     -20.220  -7.194  -6.185  1.00  0.00    -0.274 OA
HETATM   22  N   UNL     1     -21.448  -5.480  -7.062  1.00  0.00    -0.357 N 
HETATM   23  H   UNL     1     -22.278  -4.908  -6.983  1.00  0.00     0.162 HD
BRANCH  22  24
HETATM   24  C   UNL     1     -20.553  -5.249  -8.176  1.00  0.00     0.161 C 
BRANCH  24  25
HETATM   25  C   UNL     1     -21.211  -4.369  -9.206  1.00  0.00    -0.038 A 
HETATM   26  C   UNL     1     -20.429  -3.545 -10.018  1.00  0.00     0.012 A 
HETATM   27  C   UNL     1     -21.019  -2.812 -11.042  1.00  0.00     0.040 A 
HETATM   28  C   UNL     1     -22.396  -2.883 -11.266  1.00  0.00     0.099 A 
HETATM   29  C   UNL     1     -23.202  -3.678 -10.450  1.00  0.00     0.101 A 
HETATM   30  C   UNL     1     -22.600  -4.415  -9.415  1.00  0.00     0.048 A 
BRANCH  28  31
HETATM   31  O   UNL     1     -22.910  -2.175 -12.315  1.00  0.00    -0.358 OA
HETATM   32  H   UNL     1     -22.533  -1.281 -12.314  1.00  0.00     0.217 HD
ENDBRANCH  28  31
BRANCH  29  33
HETATM   33  O   UNL     1     -24.562  -3.855 -10.526  1.00  0.00    -0.353 OA
HETATM   34  C   UNL     1     -25.347  -3.327  -9.463  1.00  0.00     0.210 C 
ENDBRANCH  29  33
ENDBRANCH  24  25
ENDBRANCH  22  24
ENDBRANCH  19  20
ENDBRANCH  18  19
ENDBRANCH   1  18
TORSDOF 18
ENDMDL
MODEL 6
REMARK VINA RESULT:      -7.3     12.731     16.924
REMARK  18 active torsions:
REMARK  status: ('A' for Active; 'I' for Inactive)
REMARK    1  A    between atoms: C_2  and  C_3 
REMARK    2  A    between atoms: C_3  and  C_4 
REMARK    3  A    between atoms: C_4  and  C_5 
REMARK    4  A    between atoms: C_5  and  C_6 
REMARK    5  A    between atoms: C_7  and  C_8 
REMARK    6  A    between atoms: C_8  and  C_9 
REMARK    7  A    between atoms: C_10  and  C_11 
REMARK    8  A    between atoms: C_11  and  C_12 
REMARK    9  A    between atoms: C_13  and  C_14 
REMARK   10  A    between atoms: C_14  and  C_15 
REMARK   11  A    between atoms: C_16  and  C_17 
REMARK   12  A    between atoms: C_17  and  C_18 
REMARK   13  A    between atoms: C_18  and  C_19 
REMARK   14  A    between atoms: C_19  and  C_20 
REMARK       I    between atoms: C_20  and  N_22 
REMARK   15  A    between atoms: N_22  and  C_23 
REMARK   16  A    between atoms: C_23  and  C_24 
REMARK   17  A    between atoms: C_27  and  O_28 
REMARK   18  A    between atoms: C_29  and  O_30 
ROOT
HETATM    1  C   UNL     1     -30.207  -5.557 -15.702  1.00  0.00     0.027 C 
ENDROOT
BRANCH   1   2
HETATM    2  C   UNL     1     -31.116  -4.882 -16.690  1.00  0.00    -0.030 C 
HETATM    3  C   UNL     1     -32.348  -4.443 -16.374  1.00  0.00    -0.027 C 
BRANCH   3   4
HETATM    4  C   UNL     1     -33.279  -3.793 -17.345  1.00  0.00     0.053 C 
BRANCH   4   5
HETATM    5  C   UNL     1     -34.319  -2.964 -16.649  1.00  0.00    -0.027 C 
HETATM    6  C   UNL     1     -34.933  -1.919 -17.226  1.00  0.00    -0.027 C 
BRANCH   6   7
HETATM    7  C   UNL     1     -35.956  -1.060 -16.545  1.00  0.00     0.053 C 
BRANCH   7   8
HETATM    8  C   UNL     1     -35.502  -0.638 -15.180  1.00  0.00    -0.027 C 
HETATM    9  C   UNL     1     -35.171   0.628 -14.880  1.00  0.00    -0.027 C 
BRANCH   9  10
HETATM   10  C   UNL     1     -34.682   1.060 -13.530  1.00  0.00     0.053 C 
BRANCH  10  11
HETATM   11  C   UNL     1     -35.178   0.133 -12.463  1.00  0.00    -0.027 C 
HETATM   12  C   UNL     1     -34.517  -0.968 -12.072  1.00  0.00    -0.030 C 
BRANCH  12  13
HETATM   13  C   UNL     1     -35.008  -1.888 -10.996  1.00  0.00     0.027 C 
BRANCH  13  14
HETATM   14  C   UNL     1     -33.912  -2.862 -10.565  1.00  0.00     0.004 C 
BRANCH  14  15
HETATM   15  C   UNL     1     -34.410  -4.303 -10.657  1.00  0.00    -0.000 C 
BRANCH  15  16
HETATM   16  C   UNL     1     -33.369  -5.211 -11.305  1.00  0.00    -0.005 C 
HETATM   17  C   UNL     1     -32.389  -4.404 -12.141  1.00  0.00     0.005 C 
ENDBRANCH  15  16
ENDBRANCH  14  15
ENDBRANCH  13  14
ENDBRANCH  12  13
ENDBRANCH  10  11
ENDBRANCH   9  10
ENDBRANCH   7   8
ENDBRANCH   6   7
ENDBRANCH   4   5
ENDBRANCH   3   4
ENDBRANCH   1   2
BRANCH   1  18
HETATM   18  C   UNL     1     -29.187  -6.500 -16.359  1.00  0.00     0.013 C 
BRANCH  18  19
HETATM   19  C   UNL     1     -29.844  -7.627 -17.164  1.00  0.00     0.103 C 
BRANCH  19  20
HETATM   20  C   UNL     1     -29.306  -7.675 -18.580  1.00  0.00     0.217 C 
HETATM   21  O   UNL     1     -29.714  -8.481 -19.412  1.00  0.00    -0.274 OA
HETATM   22  N   UNL     1     -28.342  -6.740 -18.860  1.00  0.00    -0.357 N 
HETATM   23  H   UNL     1     -28.059  -6.080 -18.149  1.00  0.00     0.162 HD
BRANCH  22  24
HETATM   24  C   UNL     1     -27.711  -6.669 -20.161  1.00  0.00     0.161 C 
BRANCH  24  25
HETATM   25  C   UNL     1     -26.277  -7.119 -20.074  1.00  0.00    -0.038 A 
HETATM   26  C   UNL     1     -25.722  -7.876 -21.108  1.00  0.00     0.012 A 
HETATM   27  C   UNL     1     -24.372  -8.204 -21.087  1.00  0.00     0.040 A 
HETATM   28  C   UNL     1     -23.555  -7.790 -20.031  1.00  0.00     0.099 A 
HETATM   29  C   UNL     1     -24.092  -7.056 -18.972  1.00  0.00     0.101 A 
HETATM   30  C   UNL     1     -25.460  -6.731 -18.999  1.00  0.00     0.048 A 
BRANCH  28  31
HETATM   31  O   UNL     1     -22.228  -8.104 -20.088  1.00  0.00    -0.358 OA
HETATM   32  H   UNL     1     -21.874  -8.166 -19.187  1.00  0.00     0.217 HD
ENDBRANCH  28  31
BRANCH  29  33
HETATM   33  O   UNL     1     -23.440  -6.580 -17.861  1.00  0.00    -0.353 OA
HETATM   34  C   UNL     1     -23.500  -7.375 -16.682  1.00  0.00     0.210 C 
ENDBRANCH  29  33
ENDBRANCH  24  25
ENDBRANCH  22  24
ENDBRANCH  19  20
ENDBRANCH  18  19
ENDBRANCH   1  18
TORSDOF 18
ENDMDL
MODEL 7
REMARK VINA RESULT:      -7.3      2.697      3.500
REMARK  18 active torsions:
REMARK  status: ('A' for Active; 'I' for Inactive)
REMARK    1  A    between atoms: C_2  and  C_3 
REMARK    2  A    between atoms: C_3  and  C_4 
REMARK    3  A    between atoms: C_4  and  C_5 
REMARK    4  A    between atoms: C_5  and  C_6 
REMARK    5  A    between atoms: C_7  and  C_8 
REMARK    6  A    between atoms: C_8  and  C_9 
REMARK    7  A    between atoms: C_10  and  C_11 
REMARK    8  A    between atoms: C_11  and  C_12 
REMARK    9  A    between atoms: C_13  and  C_14 
REMARK   10  A    between atoms: C_14  and  C_15 
REMARK   11  A    between atoms: C_16  and  C_17 
REMARK   12  A    between atoms: C_17  and  C_18 
REMARK   13  A    between atoms: C_18  and  C_19 
REMARK   14  A    between atoms: C_19  and  C_20 
REMARK       I    between atoms: C_20  and  N_22 
REMARK   15  A    between atoms: N_22  and  C_23 
REMARK   16  A    between atoms: C_23  and  C_24 
REMARK   17  A    between atoms: C_27  and  O_28 
REMARK   18  A    between atoms: C_29  and  O_30 
ROOT
HETATM    1  C   UNL     1     -21.468  -6.039  -2.880  1.00  0.00     0.027 C 
ENDROOT
BRANCH   1   2
HETATM    2  C   UNL     1     -22.070  -6.414  -1.556  1.00  0.00    -0.030 C 
HETATM    3  C   UNL     1     -21.800  -7.574  -0.929  1.00  0.00    -0.027 C 
BRANCH   3   4
HETATM    4  C   UNL     1     -22.406  -7.981   0.375  1.00  0.00     0.053 C 
BRANCH   4   5
HETATM    5  C   UNL     1     -23.418  -9.075   0.201  1.00  0.00    -0.027 C 
HETATM    6  C   UNL     1     -23.130 -10.260  -0.362  1.00  0.00    -0.027 C 
BRANCH   6   7
HETATM    7  C   UNL     1     -24.128 -11.359  -0.570  1.00  0.00     0.053 C 
BRANCH   7   8
HETATM    8  C   UNL     1     -23.588 -12.687  -0.134  1.00  0.00    -0.027 C 
HETATM    9  C   UNL     1     -23.264 -12.960   1.140  1.00  0.00    -0.027 C 
BRANCH   9  10
HETATM   10  C   UNL     1     -22.690 -14.271   1.588  1.00  0.00     0.053 C 
BRANCH  10  11
HETATM   11  C   UNL     1     -21.231 -14.352   1.259  1.00  0.00    -0.027 C 
HETATM   12  C   UNL     1     -20.729 -15.161   0.314  1.00  0.00    -0.030 C 
BRANCH  12  13
HETATM   13  C   UNL     1     -19.271 -15.233  -0.025  1.00  0.00     0.027 C 
BRANCH  13  14
HETATM   14  C   UNL     1     -18.491 -14.118   0.671  1.00  0.00     0.004 C 
BRANCH  14  15
HETATM   15  C   UNL     1     -17.158 -14.646   1.200  1.00  0.00    -0.000 C 
BRANCH  15  16
HETATM   16  C   UNL     1     -16.025 -13.658   0.936  1.00  0.00    -0.005 C 
HETATM   17  C   UNL     1     -16.551 -12.234   0.865  1.00  0.00     0.005 C 
ENDBRANCH  15  16
ENDBRANCH  14  15
ENDBRANCH  13  14
ENDBRANCH  12  13
ENDBRANCH  10  11
ENDBRANCH   9  10
ENDBRANCH   7   8
ENDBRANCH   6   7
ENDBRANCH   4   5
ENDBRANCH   3   4
ENDBRANCH   1   2
BRANCH   1  18
HETATM   18  C   UNL     1     -21.539  -7.165  -3.922  1.00  0.00     0.013 C 
BRANCH  18  19
HETATM   19  C   UNL     1     -22.151  -6.713  -5.253  1.00  0.00     0.103 C 
BRANCH  19  20
HETATM   20  C   UNL     1     -21.075  -6.424  -6.280  1.00  0.00     0.217 C 
HETATM   21  O   UNL     1     -19.977  -6.973  -6.254  1.00  0.00    -0.274 OA
HETATM   22  N   UNL     1     -21.430  -5.515  -7.244  1.00  0.00    -0.357 N 
HETATM   23  H   UNL     1     -22.356  -5.110  -7.238  1.00  0.00     0.162 HD
BRANCH  22  24
HETATM   24  C   UNL     1     -20.507  -5.113  -8.284  1.00  0.00     0.161 C 
BRANCH  24  25
HETATM   25  C   UNL     1     -21.208  -4.259  -9.308  1.00  0.00    -0.038 A 
HETATM   26  C   UNL     1     -20.462  -3.437 -10.155  1.00  0.00     0.012 A 
HETATM   27  C   UNL     1     -21.092  -2.729 -11.172  1.00  0.00     0.040 A 
HETATM   28  C   UNL     1     -22.473  -2.824 -11.356  1.00  0.00     0.099 A 
HETATM   29  C   UNL     1     -23.244  -3.618 -10.504  1.00  0.00     0.101 A 
HETATM   30  C   UNL     1     -22.601  -4.329  -9.476  1.00  0.00     0.048 A 
BRANCH  28  31
HETATM   31  O   UNL     1     -23.028  -2.140 -12.399  1.00  0.00    -0.358 OA
HETATM   32  H   UNL     1     -22.627  -1.258 -12.455  1.00  0.00     0.217 HD
ENDBRANCH  28  31
BRANCH  29  33
HETATM   33  O   UNL     1     -24.602  -3.816 -10.538  1.00  0.00    -0.353 OA
HETATM   34  C   UNL     1     -25.366  -3.268  -9.470  1.00  0.00     0.210 C 
ENDBRANCH  29  33
ENDBRANCH  24  25
ENDBRANCH  22  24
ENDBRANCH  19  20
ENDBRANCH  18  19
ENDBRANCH   1  18
TORSDOF 18
ENDMDL
MODEL 8
REMARK VINA RESULT:      -7.1      7.313     11.161
REMARK  18 active torsions:
REMARK  status: ('A' for Active; 'I' for Inactive)
REMARK    1  A    between atoms: C_2  and  C_3 
REMARK    2  A    between atoms: C_3  and  C_4 
REMARK    3  A    between atoms: C_4  and  C_5 
REMARK    4  A    between atoms: C_5  and  C_6 
REMARK    5  A    between atoms: C_7  and  C_8 
REMARK    6  A    between atoms: C_8  and  C_9 
REMARK    7  A    between atoms: C_10  and  C_11 
REMARK    8  A    between atoms: C_11  and  C_12 
REMARK    9  A    between atoms: C_13  and  C_14 
REMARK   10  A    between atoms: C_14  and  C_15 
REMARK   11  A    between atoms: C_16  and  C_17 
REMARK   12  A    between atoms: C_17  and  C_18 
REMARK   13  A    between atoms: C_18  and  C_19 
REMARK   14  A    between atoms: C_19  and  C_20 
REMARK       I    between atoms: C_20  and  N_22 
REMARK   15  A    between atoms: N_22  and  C_23 
REMARK   16  A    between atoms: C_23  and  C_24 
REMARK   17  A    between atoms: C_27  and  O_28 
REMARK   18  A    between atoms: C_29  and  O_30 
ROOT
HETATM    1  C   UNL     1     -14.977 -12.807   0.815  1.00  0.00     0.027 C 
ENDROOT
BRANCH   1   2
HETATM    2  C   UNL     1     -15.384 -13.400   2.134  1.00  0.00    -0.030 C 
HETATM    3  C   UNL     1     -14.860 -14.541   2.619  1.00  0.00    -0.027 C 
BRANCH   3   4
HETATM    4  C   UNL     1     -15.267 -15.164   3.915  1.00  0.00     0.053 C 
BRANCH   4   5
HETATM    5  C   UNL     1     -14.082 -15.663   4.689  1.00  0.00    -0.027 C 
HETATM    6  C   UNL     1     -13.857 -15.345   5.974  1.00  0.00    -0.027 C 
BRANCH   6   7
HETATM    7  C   UNL     1     -12.669 -15.809   6.762  1.00  0.00     0.053 C 
BRANCH   7   8
HETATM    8  C   UNL     1     -11.394 -15.222   6.236  1.00  0.00    -0.027 C 
HETATM    9  C   UNL     1     -10.755 -14.206   6.839  1.00  0.00    -0.027 C 
BRANCH   9  10
HETATM   10  C   UNL     1      -9.499 -13.584   6.308  1.00  0.00     0.053 C 
BRANCH  10  11
HETATM   11  C   UNL     1      -8.962 -14.373   5.154  1.00  0.00    -0.027 C 
HETATM   12  C   UNL     1      -8.820 -13.872   3.917  1.00  0.00    -0.030 C 
BRANCH  12  13
HETATM   13  C   UNL     1      -8.270 -14.658   2.765  1.00  0.00     0.027 C 
BRANCH  13  14
HETATM   14  C   UNL     1      -8.805 -14.129   1.435  1.00  0.00     0.004 C 
BRANCH  14  15
HETATM   15  C   UNL     1      -9.923 -13.116   1.672  1.00  0.00    -0.000 C 
BRANCH  15  16
HETATM   16  C   UNL     1     -11.255 -13.617   1.120  1.00  0.00    -0.005 C 
HETATM   17  C   UNL     1     -11.156 -15.075   0.704  1.00  0.00     0.005 C 
ENDBRANCH  15  16
ENDBRANCH  14  15
ENDBRANCH  13  14
ENDBRANCH  12  13
ENDBRANCH  10  11
ENDBRANCH   9  10
ENDBRANCH   7   8
ENDBRANCH   6   7
ENDBRANCH   4   5
ENDBRANCH   3   4
ENDBRANCH   1   2
BRANCH   1  18
HETATM   18  C   UNL     1     -16.042 -11.879   0.211  1.00  0.00     0.013 C 
BRANCH  18  19
HETATM   19  C   UNL     1     -17.446 -12.131   0.773  1.00  0.00     0.103 C 
BRANCH  19  20
HETATM   20  C   UNL     1     -18.479 -12.188  -0.335  1.00  0.00     0.217 C 
HETATM   21  O   UNL     1     -18.306 -12.839  -1.361  1.00  0.00    -0.274 OA
HETATM   22  N   UNL     1     -19.621 -11.468  -0.093  1.00  0.00    -0.357 N 
HETATM   23  H   UNL     1     -19.727 -10.969   0.780  1.00  0.00     0.162 HD
BRANCH  22  24
HETATM   24  C   UNL     1     -20.694 -11.400  -1.062  1.00  0.00     0.161 C 
BRANCH  24  25
HETATM   25  C   UNL     1     -21.231  -9.997  -1.155  1.00  0.00    -0.038 A 
HETATM   26  C   UNL     1     -21.984  -9.469  -0.104  1.00  0.00     0.012 A 
HETATM   27  C   UNL     1     -22.390  -8.140  -0.134  1.00  0.00     0.040 A 
HETATM   28  C   UNL     1     -22.060  -7.320  -1.216  1.00  0.00     0.099 A 
HETATM   29  C   UNL     1     -21.332  -7.832  -2.291  1.00  0.00     0.101 A 
HETATM   30  C   UNL     1     -20.926  -9.178  -2.255  1.00  0.00     0.048 A 
BRANCH  28  31
HETATM   31  O   UNL     1     -22.449  -6.012  -1.168  1.00  0.00    -0.358 OA
HETATM   32  H   UNL     1     -22.061  -5.590  -0.386  1.00  0.00     0.217 HD
ENDBRANCH  28  31
BRANCH  29  33
HETATM   33  O   UNL     1     -20.932  -7.172  -3.427  1.00  0.00    -0.353 OA
HETATM   34  C   UNL     1     -21.890  -7.036  -4.471  1.00  0.00     0.210 C 
ENDBRANCH  29  33
ENDBRANCH  24  25
ENDBRANCH  22  24
ENDBRANCH  19  20
ENDBRANCH  18  19
ENDBRANCH   1  18
TORSDOF 18
ENDMDL
MODEL 9
REMARK VINA RESULT:      -7.1      1.766      4.556
REMARK  18 active torsions:
REMARK  status: ('A' for Active; 'I' for Inactive)
REMARK    1  A    between atoms: C_2  and  C_3 
REMARK    2  A    between atoms: C_3  and  C_4 
REMARK    3  A    between atoms: C_4  and  C_5 
REMARK    4  A    between atoms: C_5  and  C_6 
REMARK    5  A    between atoms: C_7  and  C_8 
REMARK    6  A    between atoms: C_8  and  C_9 
REMARK    7  A    between atoms: C_10  and  C_11 
REMARK    8  A    between atoms: C_11  and  C_12 
REMARK    9  A    between atoms: C_13  and  C_14 
REMARK   10  A    between atoms: C_14  and  C_15 
REMARK   11  A    between atoms: C_16  and  C_17 
REMARK   12  A    between atoms: C_17  and  C_18 
REMARK   13  A    between atoms: C_18  and  C_19 
REMARK   14  A    between atoms: C_19  and  C_20 
REMARK       I    between atoms: C_20  and  N_22 
REMARK   15  A    between atoms: N_22  and  C_23 
REMARK   16  A    between atoms: C_23  and  C_24 
REMARK   17  A    between atoms: C_27  and  O_28 
REMARK   18  A    between atoms: C_29  and  O_30 
ROOT
HETATM    1  C   UNL     1     -20.297  -8.493  -2.470  1.00  0.00     0.027 C 
ENDROOT
BRANCH   1   2
HETATM    2  C   UNL     1     -19.439  -9.389  -3.316  1.00  0.00    -0.030 C 
HETATM    3  C   UNL     1     -18.096  -9.296  -3.357  1.00  0.00    -0.027 C 
BRANCH   3   4
HETATM    4  C   UNL     1     -17.223 -10.159  -4.210  1.00  0.00     0.053 C 
BRANCH   4   5
HETATM    5  C   UNL     1     -18.019 -11.182  -4.964  1.00  0.00    -0.027 C 
HETATM    6  C   UNL     1     -18.457 -10.993  -6.220  1.00  0.00    -0.027 C 
BRANCH   6   7
HETATM    7  C   UNL     1     -19.275 -11.988  -6.987  1.00  0.00     0.053 C 
BRANCH   7   8
HETATM    8  C   UNL     1     -20.655 -12.125  -6.417  1.00  0.00    -0.027 C 
HETATM    9  C   UNL     1     -20.893 -12.633  -5.197  1.00  0.00    -0.027 C 
BRANCH   9  10
HETATM   10  C   UNL     1     -22.268 -12.810  -4.626  1.00  0.00     0.053 C 
BRANCH  10  11
HETATM   11  C   UNL     1     -22.343 -12.250  -3.239  1.00  0.00    -0.027 C 
HETATM   12  C   UNL     1     -23.139 -11.225  -2.895  1.00  0.00    -0.030 C 
BRANCH  12  13
HETATM   13  C   UNL     1     -23.224 -10.674  -1.505  1.00  0.00     0.027 C 
BRANCH  13  14
HETATM   14  C   UNL     1     -23.568 -11.771  -0.498  1.00  0.00     0.004 C 
BRANCH  14  15
HETATM   15  C   UNL     1     -22.403 -12.001   0.463  1.00  0.00    -0.000 C 
BRANCH  15  16
HETATM   16  C   UNL     1     -21.429 -10.827   0.446  1.00  0.00    -0.005 C 
HETATM   17  C   UNL     1     -20.008 -11.303   0.191  1.00  0.00     0.005 C 
ENDBRANCH  15  16
ENDBRANCH  14  15
ENDBRANCH  13  14
ENDBRANCH  12  13
ENDBRANCH  10  11
ENDBRANCH   9  10
ENDBRANCH   7   8
ENDBRANCH   6   7
ENDBRANCH   4   5
ENDBRANCH   3   4
ENDBRANCH   1   2
BRANCH   1  18
HETATM   18  C   UNL     1     -21.449  -7.841  -3.250  1.00  0.00     0.013 C 
BRANCH  18  19
HETATM   19  C   UNL     1     -21.375  -8.101  -4.759  1.00  0.00     0.103 C 
BRANCH  19  20
HETATM   20  C   UNL     1     -20.498  -7.076  -5.449  1.00  0.00     0.217 C 
HETATM   21  O   UNL     1     -19.590  -7.395  -6.212  1.00  0.00    -0.274 OA
HETATM   22  N   UNL     1     -20.807  -5.770  -5.166  1.00  0.00    -0.357 N 
HETATM   23  H   UNL     1     -21.581  -5.558  -4.551  1.00  0.00     0.162 HD
BRANCH  22  24
HETATM   24  C   UNL     1     -20.049  -4.672  -5.726  1.00  0.00     0.161 C 
BRANCH  24  25
HETATM   25  C   UNL     1     -20.586  -4.303  -7.084  1.00  0.00    -0.038 A 
HETATM   26  C   UNL     1     -19.715  -4.199  -8.171  1.00  0.00     0.012 A 
HETATM   27  C   UNL     1     -20.215  -3.965  -9.446  1.00  0.00     0.040 A 
HETATM   28  C   UNL     1     -21.589  -3.822  -9.657  1.00  0.00     0.099 A 
HETATM   29  C   UNL     1     -22.477  -3.894  -8.582  1.00  0.00     0.101 A 
HETATM   30  C   UNL     1     -21.964  -4.129  -7.294  1.00  0.00     0.048 A 
BRANCH  28  31
HETATM   31  O   UNL     1     -22.024  -3.638 -10.938  1.00  0.00    -0.358 OA
HETATM   32  H   UNL     1     -22.870  -3.165 -10.924  1.00  0.00     0.217 HD
ENDBRANCH  28  31
BRANCH  29  33
HETATM   33  O   UNL     1     -23.844  -3.771  -8.611  1.00  0.00    -0.353 OA
HETATM   34  C   UNL     1     -24.542  -4.499  -9.614  1.00  0.00     0.210 C 
ENDBRANCH  29  33
ENDBRANCH  24  25
ENDBRANCH  22  24
ENDBRANCH  19  20
ENDBRANCH  18  19
ENDBRANCH   1  18
TORSDOF 18
ENDMDL
