MODEL 1
REMARK VINA RESULT:     -10.4      0.000      0.000
REMARK  3 active torsions:
REMARK  status: ('A' for Active; 'I' for Inactive)
REMARK    1  A    between atoms: C_2  and  C_5 
REMARK    2  A    between atoms: C_13  and  N_14 
REMARK       I    between atoms: N_14  and  C_15 
REMARK       I    between atoms: C_15  and  N_17 
REMARK    3  A    between atoms: N_17  and  C_18 
ROOT
HETATM    1  N   UNL     1     -21.169  -6.732  -5.987  1.00  0.00    -0.334 N 
HETATM    2  C   UNL     1     -20.723  -5.893  -6.984  1.00  0.00     0.321 C 
HETATM    3  O   UNL     1     -19.566  -5.482  -6.977  1.00  0.00    -0.247 OA
HETATM    4  N   UNL     1     -21.699  -5.558  -7.900  1.00  0.00    -0.308 N 
HETATM    5  H   UNL     1     -21.945  -7.347  -6.180  1.00  0.00     0.165 HD
HETATM    6  H   UNL     1     -22.643  -5.738  -7.605  1.00  0.00     0.170 HD
ENDROOT
BRANCH   1   7
HETATM    7  C   UNL     1     -20.207  -7.144  -4.980  1.00  0.00     0.120 C 
HETATM    8  C   UNL     1     -20.841  -7.460  -3.661  1.00  0.00    -0.029 A 
HETATM    9  C   UNL     1     -21.305  -6.566  -2.717  1.00  0.00     0.010 A 
HETATM   10  C   UNL     1     -20.866  -8.833  -3.422  1.00  0.00    -0.049 A 
HETATM   11  C   UNL     1     -21.811  -7.070  -1.516  1.00  0.00     0.008 A 
HETATM   12  C   UNL     1     -21.871  -8.460  -1.250  1.00  0.00    -0.050 A 
HETATM   13  C   UNL     1     -21.377  -9.342  -2.237  1.00  0.00     0.015 A 
HETATM   14  C   UNL     1     -20.310  -9.584  -4.591  1.00  0.00     0.041 C 
HETATM   15  C   UNL     1     -19.513  -8.482  -5.307  1.00  0.00     0.035 C 
BRANCH  12  16
HETATM   16  C   UNL     1     -22.478  -9.016   0.052  1.00  0.00    -0.024 C 
HETATM   17  C   UNL     1     -23.435 -10.208  -0.176  1.00  0.00     0.019 C 
HETATM   18  C   UNL     1     -23.280  -7.922   0.788  1.00  0.00     0.019 C 
HETATM   19  C   UNL     1     -21.341  -9.508   0.971  1.00  0.00     0.019 C 
ENDBRANCH  12  16
ENDBRANCH   1   7
BRANCH   4  20
HETATM   20  C   UNL     1     -21.504  -4.680  -9.013  1.00  0.00     0.047 A 
HETATM   21  C   UNL     1     -20.209  -4.271  -9.374  1.00  0.00     0.030 A 
HETATM   22  C   UNL     1     -19.987  -3.334 -10.379  1.00  0.00     0.003 A 
HETATM   23  C   UNL     1     -21.061  -2.804 -11.073  1.00  0.00     0.014 A 
HETATM   24  C   UNL     1     -22.364  -3.232 -10.788  1.00  0.00    -0.008 A 
HETATM   25  C   UNL     1     -23.441  -2.715 -11.508  1.00  0.00     0.100 A 
HETATM   26  C   UNL     1     -22.616  -4.188  -9.767  1.00  0.00     0.004 A 
HETATM   27  N   UNL     1     -24.731  -3.070 -11.323  1.00  0.00    -0.374 N 
HETATM   28  C   UNL     1     -24.961  -3.984 -10.368  1.00  0.00     0.088 A 
ATOM     29  HN  UNL     1     -25.486  -2.667 -11.876  1.00  0.00     0.164 HD
HETATM   30  C   UNL     1     -23.967  -4.557  -9.580  1.00  0.00     0.031 A 
ENDBRANCH   4  20
TORSDOF 3
ENDMDL
MODEL 2
REMARK VINA RESULT:      -9.4      2.235      3.800
REMARK  3 active torsions:
REMARK  status: ('A' for Active; 'I' for Inactive)
REMARK    1  A    between atoms: C_2  and  C_5 
REMARK    2  A    between atoms: C_13  and  N_14 
REMARK       I    between atoms: N_14  and  C_15 
REMARK       I    between atoms: C_15  and  N_17 
REMARK    3  A    between atoms: N_17  and  C_18 
ROOT
HETATM    1  N   UNL     1     -21.191  -6.312  -4.724  1.00  0.00    -0.334 N 
HETATM    2  C   UNL     1     -21.201  -6.180  -6.095  1.00  0.00     0.321 C 
HETATM    3  O   UNL     1     -21.319  -7.168  -6.813  1.00  0.00    -0.247 OA
HETATM    4  N   UNL     1     -21.024  -4.880  -6.524  1.00  0.00    -0.308 N 
HETATM    5  H   UNL     1     -21.470  -5.527  -4.156  1.00  0.00     0.165 HD
HETATM    6  H   UNL     1     -20.658  -4.247  -5.833  1.00  0.00     0.170 HD
ENDROOT
BRANCH   1   7
HETATM    7  C   UNL     1     -21.377  -7.646  -4.181  1.00  0.00     0.120 C 
HETATM    8  C   UNL     1     -20.113  -8.448  -4.151  1.00  0.00    -0.029 A 
HETATM    9  C   UNL     1     -19.488  -9.070  -5.213  1.00  0.00     0.010 A 
HETATM   10  C   UNL     1     -19.618  -8.574  -2.854  1.00  0.00    -0.049 A 
HETATM   11  C   UNL     1     -18.340  -9.825  -4.960  1.00  0.00     0.008 A 
HETATM   12  C   UNL     1     -17.800  -9.956  -3.657  1.00  0.00    -0.050 A 
HETATM   13  C   UNL     1     -18.473  -9.313  -2.595  1.00  0.00     0.015 A 
HETATM   14  C   UNL     1     -20.469  -7.812  -1.886  1.00  0.00     0.041 C 
HETATM   15  C   UNL     1     -21.770  -7.650  -2.689  1.00  0.00     0.035 C 
BRANCH  12  16
HETATM   16  C   UNL     1     -16.504 -10.745  -3.388  1.00  0.00    -0.024 C 
HETATM   17  C   UNL     1     -15.696 -10.208  -2.185  1.00  0.00     0.019 C 
HETATM   18  C   UNL     1     -15.574 -10.699  -4.619  1.00  0.00     0.019 C 
HETATM   19  C   UNL     1     -16.860 -12.216  -3.083  1.00  0.00     0.019 C 
ENDBRANCH  12  16
ENDBRANCH   1   7
BRANCH   4  20
HETATM   20  C   UNL     1     -20.968  -4.475  -7.895  1.00  0.00     0.047 A 
HETATM   21  C   UNL     1     -19.732  -4.384  -8.556  1.00  0.00     0.030 A 
HETATM   22  C   UNL     1     -19.625  -3.891  -9.852  1.00  0.00     0.003 A 
HETATM   23  C   UNL     1     -20.765  -3.502 -10.535  1.00  0.00     0.014 A 
HETATM   24  C   UNL     1     -22.024  -3.636  -9.936  1.00  0.00    -0.008 A 
HETATM   25  C   UNL     1     -23.173  -3.269 -10.638  1.00  0.00     0.100 A 
HETATM   26  C   UNL     1     -22.158  -4.138  -8.614  1.00  0.00     0.004 A 
HETATM   27  N   UNL     1     -24.432  -3.371 -10.159  1.00  0.00    -0.374 N 
HETATM   28  C   UNL     1     -24.553  -3.860  -8.915  1.00  0.00     0.088 A 
ATOM     29  HN  UNL     1     -25.243  -3.092 -10.710  1.00  0.00     0.164 HD
HETATM   30  C   UNL     1     -23.478  -4.245  -8.119  1.00  0.00     0.031 A 
ENDBRANCH   4  20
TORSDOF 3
ENDMDL
MODEL 3
REMARK VINA RESULT:      -9.3      4.842     11.448
REMARK  3 active torsions:
REMARK  status: ('A' for Active; 'I' for Inactive)
REMARK    1  A    between atoms: C_2  and  C_5 
REMARK    2  A    between atoms: C_13  and  N_14 
REMARK       I    between atoms: N_14  and  C_15 
REMARK       I    between atoms: C_15  and  N_17 
REMARK    3  A    between atoms: N_17  and  C_18 
ROOT
HETATM    1  N   UNL     1     -21.775 -10.231  -0.781  1.00  0.00    -0.334 N 
HETATM    2  C   UNL     1     -21.640 -11.119   0.263  1.00  0.00     0.321 C 
HETATM    3  O   UNL     1     -20.849 -10.890   1.173  1.00  0.00    -0.247 OA
HETATM    4  N   UNL     1     -22.422 -12.248   0.130  1.00  0.00    -0.308 N 
HETATM    5  H   UNL     1     -22.641 -10.214  -1.297  1.00  0.00     0.165 HD
HETATM    6  H   UNL     1     -22.783 -12.413  -0.794  1.00  0.00     0.170 HD
ENDROOT
BRANCH   1   7
HETATM    7  C   UNL     1     -20.993  -9.009  -0.724  1.00  0.00     0.120 C 
HETATM    8  C   UNL     1     -20.852  -8.341  -2.057  1.00  0.00    -0.029 A 
HETATM    9  C   UNL     1     -20.024  -8.710  -3.097  1.00  0.00     0.010 A 
HETATM   10  C   UNL     1     -21.640  -7.194  -2.140  1.00  0.00    -0.049 A 
HETATM   11  C   UNL     1     -19.999  -7.912  -4.244  1.00  0.00     0.008 A 
HETATM   12  C   UNL     1     -20.802  -6.752  -4.368  1.00  0.00    -0.050 A 
HETATM   13  C   UNL     1     -21.629  -6.401  -3.279  1.00  0.00     0.015 A 
HETATM   14  C   UNL     1     -22.442  -7.011  -0.890  1.00  0.00     0.041 C 
HETATM   15  C   UNL     1     -21.663  -7.891   0.101  1.00  0.00     0.035 C 
BRANCH  12  16
HETATM   16  C   UNL     1     -20.814  -5.902  -5.653  1.00  0.00    -0.024 C 
HETATM   17  C   UNL     1     -20.064  -6.560  -6.833  1.00  0.00     0.019 C 
HETATM   18  C   UNL     1     -20.154  -4.529  -5.403  1.00  0.00     0.019 C 
HETATM   19  C   UNL     1     -22.274  -5.682  -6.102  1.00  0.00     0.019 C 
ENDBRANCH  12  16
ENDBRANCH   1   7
BRANCH   4  20
HETATM   20  C   UNL     1     -22.447 -13.335   1.060  1.00  0.00     0.047 A 
HETATM   21  C   UNL     1     -23.568 -13.540   1.882  1.00  0.00     0.030 A 
HETATM   22  C   UNL     1     -23.586 -14.516   2.872  1.00  0.00     0.003 A 
HETATM   23  C   UNL     1     -22.486 -15.340   3.045  1.00  0.00     0.014 A 
HETATM   24  C   UNL     1     -21.372 -15.211   2.205  1.00  0.00    -0.008 A 
HETATM   25  C   UNL     1     -20.277 -16.061   2.365  1.00  0.00     0.100 A 
HETATM   26  C   UNL     1     -21.331 -14.222   1.187  1.00  0.00     0.004 A 
HETATM   27  N   UNL     1     -19.163 -16.031   1.602  1.00  0.00    -0.374 N 
HETATM   28  C   UNL     1     -19.136 -15.104   0.632  1.00  0.00     0.088 A 
ATOM     29  HN  UNL     1     -18.387 -16.675   1.755  1.00  0.00     0.164 HD
HETATM   30  C   UNL     1     -20.164 -14.198   0.389  1.00  0.00     0.031 A 
ENDBRANCH   4  20
TORSDOF 3
ENDMDL
MODEL 4
REMARK VINA RESULT:      -9.1      4.710     10.863
REMARK  3 active torsions:
REMARK  status: ('A' for Active; 'I' for Inactive)
REMARK    1  A    between atoms: C_2  and  C_5 
REMARK    2  A    between atoms: C_13  and  N_14 
REMARK       I    between atoms: N_14  and  C_15 
REMARK       I    between atoms: C_15  and  N_17 
REMARK    3  A    between atoms: N_17  and  C_18 
ROOT
HETATM    1  N   UNL     1     -22.600 -10.072  -0.841  1.00  0.00    -0.334 N 
HETATM    2  C   UNL     1     -22.456 -11.237  -0.120  1.00  0.00     0.321 C 
HETATM    3  O   UNL     1     -21.414 -11.466   0.487  1.00  0.00    -0.247 OA
HETATM    4  N   UNL     1     -23.548 -12.077  -0.207  1.00  0.00    -0.308 N 
HETATM    5  H   UNL     1     -23.528  -9.715  -1.009  1.00  0.00     0.165 HD
HETATM    6  H   UNL     1     -24.182 -11.878  -0.963  1.00  0.00     0.170 HD
ENDROOT
BRANCH   1   7
HETATM    7  C   UNL     1     -21.502  -9.123  -0.802  1.00  0.00     0.120 C 
HETATM    8  C   UNL     1     -21.270  -8.442  -2.115  1.00  0.00    -0.029 A 
HETATM    9  C   UNL     1     -20.655  -8.964  -3.235  1.00  0.00     0.010 A 
HETATM   10  C   UNL     1     -21.705  -7.117  -2.087  1.00  0.00    -0.049 A 
HETATM   11  C   UNL     1     -20.485  -8.136  -4.348  1.00  0.00     0.008 A 
HETATM   12  C   UNL     1     -20.933  -6.793  -4.360  1.00  0.00    -0.050 A 
HETATM   13  C   UNL     1     -21.549  -6.292  -3.192  1.00  0.00     0.015 A 
HETATM   14  C   UNL     1     -22.333  -6.794  -0.768  1.00  0.00     0.041 C 
HETATM   15  C   UNL     1     -21.768  -7.914   0.119  1.00  0.00     0.035 C 
BRANCH  12  16
HETATM   16  C   UNL     1     -20.792  -5.897  -5.605  1.00  0.00    -0.024 C 
HETATM   17  C   UNL     1     -19.971  -6.547  -6.741  1.00  0.00     0.019 C 
HETATM   18  C   UNL     1     -20.098  -4.567  -5.243  1.00  0.00     0.019 C 
HETATM   19  C   UNL     1     -22.196  -5.591  -6.170  1.00  0.00     0.019 C 
ENDBRANCH  12  16
ENDBRANCH   1   7
BRANCH   4  20
HETATM   20  C   UNL     1     -23.642 -13.358   0.422  1.00  0.00     0.047 A 
HETATM   21  C   UNL     1     -23.475 -13.479   1.812  1.00  0.00     0.030 A 
HETATM   22  C   UNL     1     -23.450 -14.717   2.446  1.00  0.00     0.003 A 
HETATM   23  C   UNL     1     -23.623 -15.872   1.703  1.00  0.00     0.014 A 
HETATM   24  C   UNL     1     -23.856 -15.793   0.323  1.00  0.00    -0.008 A 
HETATM   25  C   UNL     1     -24.057 -16.959  -0.418  1.00  0.00     0.100 A 
HETATM   26  C   UNL     1     -23.886 -14.541  -0.346  1.00  0.00     0.004 A 
HETATM   27  N   UNL     1     -24.301 -16.993  -1.745  1.00  0.00    -0.374 N 
HETATM   28  C   UNL     1     -24.344 -15.805  -2.369  1.00  0.00     0.088 A 
ATOM     29  HN  UNL     1     -24.445 -17.870  -2.245  1.00  0.00     0.164 HD
HETATM   30  C   UNL     1     -24.146 -14.583  -1.735  1.00  0.00     0.031 A 
ENDBRANCH   4  20
TORSDOF 3
ENDMDL
MODEL 5
REMARK VINA RESULT:      -9.0      4.640     10.845
REMARK  3 active torsions:
REMARK  status: ('A' for Active; 'I' for Inactive)
REMARK    1  A    between atoms: C_2  and  C_5 
REMARK    2  A    between atoms: C_13  and  N_14 
REMARK       I    between atoms: N_14  and  C_15 
REMARK       I    between atoms: C_15  and  N_17 
REMARK    3  A    between atoms: N_17  and  C_18 
ROOT
HETATM    1  N   UNL     1     -22.672  -9.994  -1.237  1.00  0.00    -0.334 N 
HETATM    2  C   UNL     1     -22.433 -11.339  -1.061  1.00  0.00     0.321 C 
HETATM    3  O   UNL     1     -21.288 -11.750  -0.902  1.00  0.00    -0.247 OA
HETATM    4  N   UNL     1     -23.572 -12.115  -1.133  1.00  0.00    -0.308 N 
HETATM    5  H   UNL     1     -23.578  -9.624  -0.993  1.00  0.00     0.165 HD
HETATM    6  H   UNL     1     -24.370 -11.666  -1.551  1.00  0.00     0.170 HD
ENDROOT
BRANCH   1   7
HETATM    7  C   UNL     1     -21.531  -9.099  -1.171  1.00  0.00     0.120 C 
HETATM    8  C   UNL     1     -21.281  -8.374  -2.457  1.00  0.00    -0.029 A 
HETATM    9  C   UNL     1     -20.701  -8.875  -3.605  1.00  0.00     0.010 A 
HETATM   10  C   UNL     1     -21.653  -7.033  -2.369  1.00  0.00    -0.049 A 
HETATM   11  C   UNL     1     -20.503  -8.010  -4.684  1.00  0.00     0.008 A 
HETATM   12  C   UNL     1     -20.888  -6.648  -4.634  1.00  0.00    -0.050 A 
HETATM   13  C   UNL     1     -21.469  -6.170  -3.439  1.00  0.00     0.015 A 
HETATM   14  C   UNL     1     -22.254  -6.738  -1.031  1.00  0.00     0.041 C 
HETATM   15  C   UNL     1     -21.733  -7.919  -0.197  1.00  0.00     0.035 C 
BRANCH  12  16
HETATM   16  C   UNL     1     -20.718  -5.708  -5.843  1.00  0.00    -0.024 C 
HETATM   17  C   UNL     1     -22.058  -5.279  -6.482  1.00  0.00     0.019 C 
HETATM   18  C   UNL     1     -19.883  -6.389  -6.948  1.00  0.00     0.019 C 
HETATM   19  C   UNL     1     -19.993  -4.424  -5.387  1.00  0.00     0.019 C 
ENDBRANCH  12  16
ENDBRANCH   1   7
BRANCH   4  20
HETATM   20  C   UNL     1     -23.596 -13.540  -1.012  1.00  0.00     0.047 A 
HETATM   21  C   UNL     1     -23.643 -14.347  -2.161  1.00  0.00     0.030 A 
HETATM   22  C   UNL     1     -23.777 -15.730  -2.085  1.00  0.00     0.003 A 
HETATM   23  C   UNL     1     -23.836 -16.346  -0.846  1.00  0.00     0.014 A 
HETATM   24  C   UNL     1     -23.729 -15.584   0.325  1.00  0.00    -0.008 A 
HETATM   25  C   UNL     1     -23.762 -16.212   1.571  1.00  0.00     0.100 A 
HETATM   26  C   UNL     1     -23.591 -14.172   0.272  1.00  0.00     0.004 A 
HETATM   27  N   UNL     1     -23.653 -15.575   2.756  1.00  0.00    -0.374 N 
HETATM   28  C   UNL     1     -23.508 -14.242   2.699  1.00  0.00     0.088 A 
ATOM     29  HN  UNL     1     -23.680 -16.077   3.643  1.00  0.00     0.164 HD
HETATM   30  C   UNL     1     -23.474 -13.510   1.516  1.00  0.00     0.031 A 
ENDBRANCH   4  20
TORSDOF 3
ENDMDL
MODEL 6
REMARK VINA RESULT:      -8.8      5.782      8.465
REMARK  3 active torsions:
REMARK  status: ('A' for Active; 'I' for Inactive)
REMARK    1  A    between atoms: C_2  and  C_5 
REMARK    2  A    between atoms: C_13  and  N_14 
REMARK       I    between atoms: N_14  and  C_15 
REMARK       I    between atoms: C_15  and  N_17 
REMARK    3  A    between atoms: N_17  and  C_18 
ROOT
HETATM    1  N   UNL     1     -17.309 -11.259  -2.372  1.00  0.00    -0.334 N 
HETATM    2  C   UNL     1     -17.779 -10.022  -2.756  1.00  0.00     0.321 C 
HETATM    3  O   UNL     1     -17.052  -9.036  -2.693  1.00  0.00    -0.247 OA
HETATM    4  N   UNL     1     -19.102 -10.034  -3.148  1.00  0.00    -0.308 N 
HETATM    5  H   UNL     1     -17.736 -12.085  -2.761  1.00  0.00     0.165 HD
HETATM    6  H   UNL     1     -19.624 -10.847  -2.869  1.00  0.00     0.170 HD
ENDROOT
BRANCH   1   7
HETATM    7  C   UNL     1     -15.922 -11.344  -1.949  1.00  0.00     0.120 C 
HETATM    8  C   UNL     1     -15.728 -12.224  -0.754  1.00  0.00    -0.029 A 
HETATM    9  C   UNL     1     -16.012 -11.926   0.563  1.00  0.00     0.010 A 
HETATM   10  C   UNL     1     -15.133 -13.436  -1.103  1.00  0.00    -0.049 A 
HETATM   11  C   UNL     1     -15.698 -12.872   1.543  1.00  0.00     0.008 A 
HETATM   12  C   UNL     1     -15.113 -14.120   1.220  1.00  0.00    -0.050 A 
HETATM   13  C   UNL     1     -14.828 -14.385  -0.138  1.00  0.00     0.015 A 
HETATM   14  C   UNL     1     -14.927 -13.518  -2.583  1.00  0.00     0.041 C 
HETATM   15  C   UNL     1     -15.009 -12.036  -2.983  1.00  0.00     0.035 C 
BRANCH  12  16
HETATM   16  C   UNL     1     -14.816 -15.184   2.294  1.00  0.00    -0.024 C 
HETATM   17  C   UNL     1     -15.530 -16.531   2.041  1.00  0.00     0.019 C 
HETATM   18  C   UNL     1     -15.259 -14.688   3.687  1.00  0.00     0.019 C 
HETATM   19  C   UNL     1     -13.299 -15.466   2.323  1.00  0.00     0.019 C 
ENDBRANCH  12  16
ENDBRANCH   1   7
BRANCH   4  20
HETATM   20  C   UNL     1     -19.838  -8.880  -3.565  1.00  0.00     0.047 A 
HETATM   21  C   UNL     1     -19.723  -8.405  -4.883  1.00  0.00     0.030 A 
HETATM   22  C   UNL     1     -20.335  -7.226  -5.296  1.00  0.00     0.003 A 
HETATM   23  C   UNL     1     -21.108  -6.503  -4.402  1.00  0.00     0.014 A 
HETATM   24  C   UNL     1     -21.300  -6.975  -3.097  1.00  0.00    -0.008 A 
HETATM   25  C   UNL     1     -22.101  -6.258  -2.207  1.00  0.00     0.100 A 
HETATM   26  C   UNL     1     -20.686  -8.176  -2.652  1.00  0.00     0.004 A 
HETATM   27  N   UNL     1     -22.362  -6.631  -0.936  1.00  0.00    -0.374 N 
HETATM   28  C   UNL     1     -21.791  -7.775  -0.527  1.00  0.00     0.088 A 
ATOM     29  HN  UNL     1     -22.957  -6.075  -0.322  1.00  0.00     0.164 HD
HETATM   30  C   UNL     1     -20.965  -8.563  -1.321  1.00  0.00     0.031 A 
ENDBRANCH   4  20
TORSDOF 3
ENDMDL
MODEL 7
REMARK VINA RESULT:      -8.7      5.536      9.532
REMARK  3 active torsions:
REMARK  status: ('A' for Active; 'I' for Inactive)
REMARK    1  A    between atoms: C_2  and  C_5 
REMARK    2  A    between atoms: C_13  and  N_14 
REMARK       I    between atoms: N_14  and  C_15 
REMARK       I    between atoms: C_15  and  N_17 
REMARK    3  A    between atoms: N_17  and  C_18 
ROOT
HETATM    1  N   UNL     1     -17.674 -10.734  -4.214  1.00  0.00    -0.334 N 
HETATM    2  C   UNL     1     -18.155 -10.087  -3.097  1.00  0.00     0.321 C 
HETATM    3  O   UNL     1     -17.385  -9.513  -2.333  1.00  0.00    -0.247 OA
HETATM    4  N   UNL     1     -19.520 -10.205  -2.937  1.00  0.00    -0.308 N 
HETATM    5  H   UNL     1     -18.288 -10.864  -5.003  1.00  0.00     0.165 HD
HETATM    6  H   UNL     1     -19.953 -10.936  -3.477  1.00  0.00     0.170 HD
ENDROOT
BRANCH   1   7
HETATM    7  C   UNL     1     -16.246 -10.658  -4.467  1.00  0.00     0.120 C 
HETATM    8  C   UNL     1     -15.580 -11.998  -4.467  1.00  0.00    -0.029 A 
HETATM    9  C   UNL     1     -15.249 -12.772  -3.373  1.00  0.00     0.010 A 
HETATM   10  C   UNL     1     -15.240 -12.400  -5.759  1.00  0.00    -0.049 A 
HETATM   11  C   UNL     1     -14.572 -13.976  -3.589  1.00  0.00     0.008 A 
HETATM   12  C   UNL     1     -14.231 -14.422  -4.889  1.00  0.00    -0.050 A 
HETATM   13  C   UNL     1     -14.577 -13.598  -5.982  1.00  0.00     0.015 A 
HETATM   14  C   UNL     1     -15.705 -11.395  -6.765  1.00  0.00     0.041 C 
HETATM   15  C   UNL     1     -15.901 -10.151  -5.882  1.00  0.00     0.035 C 
BRANCH  12  16
HETATM   16  C   UNL     1     -13.532 -15.774  -5.129  1.00  0.00    -0.024 C 
HETATM   17  C   UNL     1     -12.711 -15.818  -6.438  1.00  0.00     0.019 C 
HETATM   18  C   UNL     1     -14.568 -16.916  -5.202  1.00  0.00     0.019 C 
HETATM   19  C   UNL     1     -12.558 -16.055  -3.966  1.00  0.00     0.019 C 
ENDBRANCH  12  16
ENDBRANCH   1   7
BRANCH   4  20
HETATM   20  C   UNL     1     -20.264  -9.652  -1.847  1.00  0.00     0.047 A 
HETATM   21  C   UNL     1     -20.382 -10.359  -0.639  1.00  0.00     0.030 A 
HETATM   22  C   UNL     1     -21.185  -9.907   0.403  1.00  0.00     0.003 A 
HETATM   23  C   UNL     1     -21.870  -8.711   0.273  1.00  0.00     0.014 A 
HETATM   24  C   UNL     1     -21.729  -7.942  -0.890  1.00  0.00    -0.008 A 
HETATM   25  C   UNL     1     -22.400  -6.724  -1.006  1.00  0.00     0.100 A 
HETATM   26  C   UNL     1     -20.915  -8.384  -1.967  1.00  0.00     0.004 A 
HETATM   27  N   UNL     1     -22.322  -5.903  -2.075  1.00  0.00    -0.374 N 
HETATM   28  C   UNL     1     -21.540  -6.318  -3.083  1.00  0.00     0.088 A 
ATOM     29  HN  UNL     1     -22.829  -5.019  -2.114  1.00  0.00     0.164 HD
HETATM   30  C   UNL     1     -20.835  -7.518  -3.082  1.00  0.00     0.031 A 
ENDBRANCH   4  20
TORSDOF 3
ENDMDL
MODEL 8
REMARK VINA RESULT:      -8.7     17.965     19.853
REMARK  3 active torsions:
REMARK  status: ('A' for Active; 'I' for Inactive)
REMARK    1  A    between atoms: C_2  and  C_5 
REMARK    2  A    between atoms: C_13  and  N_14 
REMARK       I    between atoms: N_14  and  C_15 
REMARK       I    between atoms: C_15  and  N_17 
REMARK    3  A    between atoms: N_17  and  C_18 
ROOT
HETATM    1  N   UNL     1     -19.842   9.422   4.709  1.00  0.00    -0.334 N 
HETATM    2  C   UNL     1     -18.508   9.764   4.704  1.00  0.00     0.321 C 
HETATM    3  O   UNL     1     -18.158  10.893   4.372  1.00  0.00    -0.247 OA
HETATM    4  N   UNL     1     -17.671   8.723   5.050  1.00  0.00    -0.308 N 
HETATM    5  H   UNL     1     -20.151   8.675   5.313  1.00  0.00     0.165 HD
HETATM    6  H   UNL     1     -18.087   7.807   5.008  1.00  0.00     0.170 HD
ENDROOT
BRANCH   1   7
HETATM    7  C   UNL     1     -20.799  10.458   4.364  1.00  0.00     0.120 C 
HETATM    8  C   UNL     1     -21.675  10.084   3.210  1.00  0.00    -0.029 A 
HETATM    9  C   UNL     1     -21.343  10.076   1.870  1.00  0.00     0.010 A 
HETATM   10  C   UNL     1     -22.971   9.782   3.629  1.00  0.00    -0.049 A 
HETATM   11  C   UNL     1     -22.334   9.749   0.940  1.00  0.00     0.008 A 
HETATM   12  C   UNL     1     -23.653   9.418   1.334  1.00  0.00    -0.050 A 
HETATM   13  C   UNL     1     -23.957   9.446   2.713  1.00  0.00     0.015 A 
HETATM   14  C   UNL     1     -23.077   9.860   5.119  1.00  0.00     0.041 C 
HETATM   15  C   UNL     1     -21.848  10.716   5.466  1.00  0.00     0.035 C 
BRANCH  12  16
HETATM   16  C   UNL     1     -24.730   9.005   0.312  1.00  0.00    -0.024 C 
HETATM   17  C   UNL     1     -26.101   8.700   0.953  1.00  0.00     0.019 C 
HETATM   18  C   UNL     1     -24.293   7.740  -0.457  1.00  0.00     0.019 C 
HETATM   19  C   UNL     1     -24.939  10.156  -0.695  1.00  0.00     0.019 C 
ENDBRANCH  12  16
ENDBRANCH   1   7
BRANCH   4  20
HETATM   20  C   UNL     1     -16.244   8.805   5.093  1.00  0.00     0.047 A 
HETATM   21  C   UNL     1     -15.570   8.788   6.326  1.00  0.00     0.030 A 
HETATM   22  C   UNL     1     -14.195   8.977   6.417  1.00  0.00     0.003 A 
HETATM   23  C   UNL     1     -13.449   9.157   5.264  1.00  0.00     0.014 A 
HETATM   24  C   UNL     1     -14.072   9.117   4.010  1.00  0.00    -0.008 A 
HETATM   25  C   UNL     1     -13.313   9.272   2.849  1.00  0.00     0.100 A 
HETATM   26  C   UNL     1     -15.475   8.926   3.892  1.00  0.00     0.004 A 
HETATM   27  N   UNL     1     -13.812   9.237   1.594  1.00  0.00    -0.374 N 
HETATM   28  C   UNL     1     -15.135   9.041   1.490  1.00  0.00     0.088 A 
ATOM     29  HN  UNL     1     -13.217   9.353   0.775  1.00  0.00     0.164 HD
HETATM   30  C   UNL     1     -15.990   8.887   2.576  1.00  0.00     0.031 A 
ENDBRANCH   4  20
TORSDOF 3
ENDMDL
MODEL 9
REMARK VINA RESULT:      -8.5     17.796     19.641
REMARK  3 active torsions:
REMARK  status: ('A' for Active; 'I' for Inactive)
REMARK    1  A    between atoms: C_2  and  C_5 
REMARK    2  A    between atoms: C_13  and  N_14 
REMARK       I    between atoms: N_14  and  C_15 
REMARK       I    between atoms: C_15  and  N_17 
REMARK    3  A    between atoms: N_17  and  C_18 
ROOT
HETATM    1  N   UNL     1     -19.904   9.484   2.649  1.00  0.00    -0.334 N 
HETATM    2  C   UNL     1     -18.608   9.940   2.735  1.00  0.00     0.321 C 
HETATM    3  O   UNL     1     -18.374  11.144   2.762  1.00  0.00    -0.247 OA
HETATM    4  N   UNL     1     -17.668   8.929   2.738  1.00  0.00    -0.308 N 
HETATM    5  H   UNL     1     -20.122   8.563   2.997  1.00  0.00     0.165 HD
HETATM    6  H   UNL     1     -18.001   8.034   2.423  1.00  0.00     0.170 HD
ENDROOT
BRANCH   1   7
HETATM    7  C   UNL     1     -20.963  10.478   2.646  1.00  0.00     0.120 C 
HETATM    8  C   UNL     1     -22.150  10.066   1.832  1.00  0.00    -0.029 A 
HETATM    9  C   UNL     1     -22.269  10.073   0.457  1.00  0.00     0.010 A 
HETATM   10  C   UNL     1     -23.227   9.708   2.643  1.00  0.00    -0.049 A 
HETATM   11  C   UNL     1     -23.493   9.704  -0.107  1.00  0.00     0.008 A 
HETATM   12  C   UNL     1     -24.599   9.315   0.687  1.00  0.00    -0.050 A 
HETATM   13  C   UNL     1     -24.442   9.330   2.091  1.00  0.00     0.015 A 
HETATM   14  C   UNL     1     -22.847   9.781   4.089  1.00  0.00     0.041 C 
HETATM   15  C   UNL     1     -21.608  10.689   4.031  1.00  0.00     0.035 C 
BRANCH  12  16
HETATM   16  C   UNL     1     -25.931   8.857   0.063  1.00  0.00    -0.024 C 
HETATM   17  C   UNL     1     -26.999   8.467   1.108  1.00  0.00     0.019 C 
HETATM   18  C   UNL     1     -25.711   7.628  -0.845  1.00  0.00     0.019 C 
HETATM   19  C   UNL     1     -26.515  10.007  -0.785  1.00  0.00     0.019 C 
ENDBRANCH  12  16
ENDBRANCH   1   7
BRANCH   4  20
HETATM   20  C   UNL     1     -16.253   9.134   2.792  1.00  0.00     0.047 A 
HETATM   21  C   UNL     1     -15.533   9.414   1.618  1.00  0.00     0.030 A 
HETATM   22  C   UNL     1     -14.145   9.511   1.611  1.00  0.00     0.003 A 
HETATM   23  C   UNL     1     -13.440   9.358   2.794  1.00  0.00     0.014 A 
HETATM   24  C   UNL     1     -14.124   9.140   3.997  1.00  0.00    -0.008 A 
HETATM   25  C   UNL     1     -13.411   9.014   5.190  1.00  0.00     0.100 A 
HETATM   26  C   UNL     1     -15.540   9.038   4.029  1.00  0.00     0.004 A 
HETATM   27  N   UNL     1     -13.972   8.817   6.403  1.00  0.00    -0.374 N 
HETATM   28  C   UNL     1     -15.311   8.737   6.429  1.00  0.00     0.088 A 
ATOM     29  HN  UNL     1     -13.410   8.733   7.250  1.00  0.00     0.164 HD
HETATM   30  C   UNL     1     -16.121   8.835   5.302  1.00  0.00     0.031 A 
ENDBRANCH   4  20
TORSDOF 3
ENDMDL
