MODEL 1
REMARK VINA RESULT:      -5.7      0.000      0.000
REMARK  0 active torsions:
REMARK  status: ('A' for Active; 'I' for Inactive)
ROOT
HETATM    1  C   UNL     1     -20.133  -8.180  -1.499  1.00  0.00     0.024 C 
HETATM    2  C   UNL     1     -21.422  -8.727  -0.935  1.00  0.00     0.024 C 
HETATM    3  C   UNL     1     -22.197  -9.687  -1.868  1.00  0.00     0.018 C 
HETATM    4  C   UNL     1     -23.187 -10.380  -0.903  1.00  0.00     0.007 C 
HETATM    5  C   UNL     1     -22.885  -9.705   0.459  1.00  0.00     0.001 C 
HETATM    6  C   UNL     1     -23.465  -8.269   0.394  1.00  0.00     0.084 C 
HETATM    7  C   UNL     1     -22.467  -7.667  -0.574  1.00  0.00     0.136 C 
HETATM    8  O   UNL     1     -22.518  -6.529  -1.012  1.00  0.00    -0.297 OA
HETATM    9  C   UNL     1     -21.345  -9.502   0.409  1.00  0.00    -0.029 C 
HETATM   10  C   UNL     1     -20.769  -8.694   1.588  1.00  0.00     0.016 C 
HETATM   11  C   UNL     1     -20.535 -10.812   0.338  1.00  0.00     0.016 C 
ENDROOT
TORSDOF 0
ENDMDL
MODEL 2
REMARK VINA RESULT:      -5.2      1.586      2.787
REMARK  0 active torsions:
REMARK  status: ('A' for Active; 'I' for Inactive)
ROOT
HETATM    1  C   UNL     1     -20.138 -10.966  -0.190  1.00  0.00     0.024 C 
HETATM    2  C   UNL     1     -20.909  -9.676  -0.334  1.00  0.00     0.024 C 
HETATM    3  C   UNL     1     -20.226  -8.592  -1.202  1.00  0.00     0.018 C 
HETATM    4  C   UNL     1     -21.385  -7.613  -1.502  1.00  0.00     0.007 C 
HETATM    5  C   UNL     1     -22.582  -8.234  -0.739  1.00  0.00     0.001 C 
HETATM    6  C   UNL     1     -22.339  -7.979   0.771  1.00  0.00     0.084 C 
HETATM    7  C   UNL     1     -21.193  -8.946   0.982  1.00  0.00     0.136 C 
HETATM    8  O   UNL     1     -20.582  -9.087   2.029  1.00  0.00    -0.297 OA
HETATM    9  C   UNL     1     -22.347  -9.760  -0.915  1.00  0.00    -0.029 C 
HETATM   10  C   UNL     1     -23.316 -10.652  -0.112  1.00  0.00     0.016 C 
HETATM   11  C   UNL     1     -22.411 -10.247  -2.377  1.00  0.00     0.016 C 
ENDROOT
TORSDOF 0
ENDMDL
MODEL 3
REMARK VINA RESULT:      -5.2      1.941      3.232
REMARK  0 active torsions:
REMARK  status: ('A' for Active; 'I' for Inactive)
ROOT
HETATM    1  C   UNL     1     -19.875 -11.080  -0.318  1.00  0.00     0.024 C 
HETATM    2  C   UNL     1     -21.046 -10.164  -0.055  1.00  0.00     0.024 C 
HETATM    3  C   UNL     1     -20.904  -9.248   1.183  1.00  0.00     0.018 C 
HETATM    4  C   UNL     1     -22.003  -8.184   0.951  1.00  0.00     0.007 C 
HETATM    5  C   UNL     1     -22.665  -8.641  -0.373  1.00  0.00     0.001 C 
HETATM    6  C   UNL     1     -23.511  -9.899  -0.047  1.00  0.00     0.084 C 
HETATM    7  C   UNL     1     -22.380 -10.878   0.186  1.00  0.00     0.136 C 
HETATM    8  O   UNL     1     -22.521 -12.038   0.539  1.00  0.00    -0.297 OA
HETATM    9  C   UNL     1     -21.461  -9.188  -1.189  1.00  0.00    -0.029 C 
HETATM   10  C   UNL     1     -21.848  -9.868  -2.518  1.00  0.00     0.016 C 
HETATM   11  C   UNL     1     -20.396  -8.127  -1.533  1.00  0.00     0.016 C 
ENDROOT
TORSDOF 0
ENDMDL
MODEL 4
REMARK VINA RESULT:      -5.2      1.464      2.703
REMARK  0 active torsions:
REMARK  status: ('A' for Active; 'I' for Inactive)
ROOT
HETATM    1  C   UNL     1     -22.230  -7.561  -0.740  1.00  0.00     0.024 C 
HETATM    2  C   UNL     1     -22.101  -9.022  -0.381  1.00  0.00     0.024 C 
HETATM    3  C   UNL     1     -23.430  -9.739  -0.042  1.00  0.00     0.018 C 
HETATM    4  C   UNL     1     -23.047 -11.234  -0.137  1.00  0.00     0.007 C 
HETATM    5  C   UNL     1     -21.536 -11.193  -0.482  1.00  0.00     0.001 C 
HETATM    6  C   UNL     1     -20.788 -10.760   0.805  1.00  0.00     0.084 C 
HETATM    7  C   UNL     1     -21.224  -9.310   0.842  1.00  0.00     0.136 C 
HETATM    8  O   UNL     1     -20.941  -8.517   1.726  1.00  0.00    -0.297 OA
HETATM    9  C   UNL     1     -21.432  -9.960  -1.423  1.00  0.00    -0.029 C 
HETATM   10  C   UNL     1     -19.990  -9.572  -1.809  1.00  0.00     0.016 C 
HETATM   11  C   UNL     1     -22.217 -10.102  -2.742  1.00  0.00     0.016 C 
ENDROOT
TORSDOF 0
ENDMDL
MODEL 5
REMARK VINA RESULT:      -5.0     18.646     19.843
REMARK  0 active torsions:
REMARK  status: ('A' for Active; 'I' for Inactive)
ROOT
HETATM    1  C   UNL     1     -15.935  10.901   3.938  1.00  0.00     0.024 C 
HETATM    2  C   UNL     1     -15.272   9.978   2.942  1.00  0.00     0.024 C 
HETATM    3  C   UNL     1     -14.358  10.673   1.905  1.00  0.00     0.018 C 
HETATM    4  C   UNL     1     -13.532   9.497   1.334  1.00  0.00     0.007 C 
HETATM    5  C   UNL     1     -14.099   8.267   2.086  1.00  0.00     0.001 C 
HETATM    6  C   UNL     1     -15.503   7.979   1.494  1.00  0.00     0.084 C 
HETATM    7  C   UNL     1     -16.240   9.169   2.073  1.00  0.00     0.136 C 
HETATM    8  O   UNL     1     -17.407   9.444   1.849  1.00  0.00    -0.297 OA
HETATM    9  C   UNL     1     -14.387   8.833   3.504  1.00  0.00    -0.029 C 
HETATM   10  C   UNL     1     -15.118   7.855   4.446  1.00  0.00     0.016 C 
HETATM   11  C   UNL     1     -13.133   9.315   4.261  1.00  0.00     0.016 C 
ENDROOT
TORSDOF 0
ENDMDL
MODEL 6
REMARK VINA RESULT:      -5.0      1.682      3.048
REMARK  0 active torsions:
REMARK  status: ('A' for Active; 'I' for Inactive)
ROOT
HETATM    1  C   UNL     1     -23.000 -11.581   0.314  1.00  0.00     0.024 C 
HETATM    2  C   UNL     1     -22.438 -10.309  -0.274  1.00  0.00     0.024 C 
HETATM    3  C   UNL     1     -23.193  -9.013   0.109  1.00  0.00     0.018 C 
HETATM    4  C   UNL     1     -22.183  -7.904  -0.267  1.00  0.00     0.007 C 
HETATM    5  C   UNL     1     -20.988  -8.696  -0.854  1.00  0.00     0.001 C 
HETATM    6  C   UNL     1     -21.425  -9.208  -2.251  1.00  0.00     0.084 C 
HETATM    7  C   UNL     1     -22.415 -10.264  -1.805  1.00  0.00     0.136 C 
HETATM    8  O   UNL     1     -23.101 -10.940  -2.555  1.00  0.00    -0.297 OA
HETATM    9  C   UNL     1     -20.953  -9.973   0.031  1.00  0.00    -0.029 C 
HETATM   10  C   UNL     1     -19.942 -11.042  -0.430  1.00  0.00     0.016 C 
HETATM   11  C   UNL     1     -20.658  -9.703   1.520  1.00  0.00     0.016 C 
ENDROOT
TORSDOF 0
ENDMDL
MODEL 7
REMARK VINA RESULT:      -5.0     19.007     20.231
REMARK  0 active torsions:
REMARK  status: ('A' for Active; 'I' for Inactive)
ROOT
HETATM    1  C   UNL     1     -15.179   8.235   4.544  1.00  0.00     0.024 C 
HETATM    2  C   UNL     1     -14.886   9.234   3.450  1.00  0.00     0.024 C 
HETATM    3  C   UNL     1     -13.389   9.420   3.108  1.00  0.00     0.018 C 
HETATM    4  C   UNL     1     -13.436  10.135   1.738  1.00  0.00     0.007 C 
HETATM    5  C   UNL     1     -14.954  10.305   1.479  1.00  0.00     0.001 C 
HETATM    6  C   UNL     1     -15.456  11.421   2.432  1.00  0.00     0.084 C 
HETATM    7  C   UNL     1     -15.362  10.661   3.738  1.00  0.00     0.136 C 
HETATM    8  O   UNL     1     -15.600  11.131   4.839  1.00  0.00    -0.297 OA
HETATM    9  C   UNL     1     -15.553   8.997   2.067  1.00  0.00    -0.029 C 
HETATM   10  C   UNL     1     -17.094   8.956   2.092  1.00  0.00     0.016 C 
HETATM   11  C   UNL     1     -15.090   7.712   1.353  1.00  0.00     0.016 C 
ENDROOT
TORSDOF 0
ENDMDL
MODEL 8
REMARK VINA RESULT:      -5.0     16.636     17.738
REMARK  0 active torsions:
REMARK  status: ('A' for Active; 'I' for Inactive)
ROOT
HETATM    1  C   UNL     1     -34.686  -2.858 -13.549  1.00  0.00     0.024 C 
HETATM    2  C   UNL     1     -34.199  -3.890 -12.560  1.00  0.00     0.024 C 
HETATM    3  C   UNL     1     -32.689  -4.219 -12.638  1.00  0.00     0.018 C 
HETATM    4  C   UNL     1     -32.426  -4.940 -11.296  1.00  0.00     0.007 C 
HETATM    5  C   UNL     1     -33.824  -4.969 -10.628  1.00  0.00     0.001 C 
HETATM    6  C   UNL     1     -34.668  -6.024 -11.389  1.00  0.00     0.084 C 
HETATM    7  C   UNL     1     -34.866  -5.263 -12.684  1.00  0.00     0.136 C 
HETATM    8  O   UNL     1     -35.439  -5.699 -13.669  1.00  0.00    -0.297 OA
HETATM    9  C   UNL     1     -34.437  -3.605 -11.052  1.00  0.00    -0.029 C 
HETATM   10  C   UNL     1     -35.915  -3.419 -10.655  1.00  0.00     0.016 C 
HETATM   11  C   UNL     1     -33.679  -2.376 -10.513  1.00  0.00     0.016 C 
ENDROOT
TORSDOF 0
ENDMDL
MODEL 9
REMARK VINA RESULT:      -5.0     15.703     17.205
REMARK  0 active torsions:
REMARK  status: ('A' for Active; 'I' for Inactive)
ROOT
HETATM    1  C   UNL     1     -24.113   9.047  -4.102  1.00  0.00     0.024 C 
HETATM    2  C   UNL     1     -24.140   8.357  -2.759  1.00  0.00     0.024 C 
HETATM    3  C   UNL     1     -24.163   9.300  -1.532  1.00  0.00     0.018 C 
HETATM    4  C   UNL     1     -24.603   8.360  -0.386  1.00  0.00     0.007 C 
HETATM    5  C   UNL     1     -24.742   6.985  -1.088  1.00  0.00     0.001 C 
HETATM    6  C   UNL     1     -23.306   6.475  -1.376  1.00  0.00     0.084 C 
HETATM    7  C   UNL     1     -22.940   7.446  -2.480  1.00  0.00     0.136 C 
HETATM    8  O   UNL     1     -21.851   7.502  -3.028  1.00  0.00    -0.297 OA
HETATM    9  C   UNL     1     -25.304   7.367  -2.485  1.00  0.00    -0.029 C 
HETATM   10  C   UNL     1     -25.399   6.191  -3.478  1.00  0.00     0.016 C 
HETATM   11  C   UNL     1     -26.699   8.024  -2.449  1.00  0.00     0.016 C 
ENDROOT
TORSDOF 0
ENDMDL
