MODEL 1
REMARK VINA RESULT:      -8.0      0.000      0.000
REMARK  6 active torsions:
REMARK  status: ('A' for Active; 'I' for Inactive)
REMARK    1  A    between atoms: C_2  and  N_3 
REMARK    2  A    between atoms: N_3  and  C_4 
REMARK    3  A    between atoms: N_3  and  C_17 
REMARK    4  A    between atoms: C_4  and  C_5 
REMARK    5  A    between atoms: C_5  and  N_6 
REMARK       I    between atoms: N_6  and  C_7 
REMARK       I    between atoms: C_7  and  N_9 
REMARK    6  A    between atoms: N_9  and  C_10 
ROOT
HETATM    1  N   UNL     1     -21.646  -6.553  -4.712  1.00  0.00    -0.341 N 
HETATM    2  C   UNL     1     -21.640  -6.299  -6.067  1.00  0.00     0.320 C 
HETATM    3  O   UNL     1     -21.472  -7.183  -6.900  1.00  0.00    -0.247 OA
HETATM    4  N   UNL     1     -21.768  -4.955  -6.337  1.00  0.00    -0.308 N 
HETATM    5  H   UNL     1     -22.331  -6.008  -4.202  1.00  0.00     0.164 HD
HETATM    6  H   UNL     1     -21.338  -4.358  -5.640  1.00  0.00     0.170 HD
ENDROOT
BRANCH   1   7
HETATM    7  C   UNL     1     -21.421  -7.920  -4.253  1.00  0.00     0.144 C 
BRANCH   7   8
HETATM    8  C   UNL     1     -20.078  -8.097  -3.506  1.00  0.00     0.142 C 
BRANCH   8   9
HETATM    9  N   UNL     1     -20.183  -9.066  -2.401  1.00  0.00    -0.380 N 
BRANCH   9  10
HETATM   10  C   UNL     1     -19.134 -10.083  -2.190  1.00  0.00     0.118 C 
HETATM   11  C   UNL     1     -17.747  -9.788  -2.730  1.00  0.00     0.026 C 
ENDBRANCH   9  10
BRANCH   9  12
HETATM   12  C   UNL     1     -21.227  -8.991  -1.466  1.00  0.00     0.030 A 
HETATM   13  C   UNL     1     -21.435  -7.841  -0.680  1.00  0.00     0.029 A 
HETATM   14  C   UNL     1     -22.460  -7.746   0.269  1.00  0.00     0.003 A 
HETATM   15  C   UNL     1     -23.325  -8.813   0.468  1.00  0.00     0.007 A 
HETATM   16  C   UNL     1     -23.170  -9.972  -0.289  1.00  0.00    -0.060 A 
HETATM   17  C   UNL     1     -24.094 -11.139  -0.097  1.00  0.00     0.048 C 
HETATM   18  C   UNL     1     -22.129 -10.047  -1.238  1.00  0.00     0.036 A 
ENDBRANCH   9  12
ENDBRANCH   8   9
ENDBRANCH   7   8
ENDBRANCH   1   7
BRANCH   4  19
HETATM   19  C   UNL     1     -21.729  -4.473  -7.668  1.00  0.00     0.053 A 
HETATM   20  C   UNL     1     -22.919  -4.260  -8.376  1.00  0.00     0.031 A 
HETATM   21  C   UNL     1     -22.887  -3.830  -9.703  1.00  0.00     0.002 A 
HETATM   22  C   UNL     1     -21.668  -3.601 -10.332  1.00  0.00     0.002 A 
HETATM   23  C   UNL     1     -20.475  -3.783  -9.630  1.00  0.00     0.021 A 
HETATM   24  C   UNL     1     -20.506  -4.199  -8.295  1.00  0.00     0.037 A 
HETATM   25 BR   UNL     1     -18.849  -4.491  -7.409  1.00  0.00    -0.049 Br
ENDBRANCH   4  19
TORSDOF 6
ENDMDL
MODEL 2
REMARK VINA RESULT:      -7.3      1.413      2.590
REMARK  6 active torsions:
REMARK  status: ('A' for Active; 'I' for Inactive)
REMARK    1  A    between atoms: C_2  and  N_3 
REMARK    2  A    between atoms: N_3  and  C_4 
REMARK    3  A    between atoms: N_3  and  C_17 
REMARK    4  A    between atoms: C_4  and  C_5 
REMARK    5  A    between atoms: C_5  and  N_6 
REMARK       I    between atoms: N_6  and  C_7 
REMARK       I    between atoms: C_7  and  N_9 
REMARK    6  A    between atoms: N_9  and  C_10 
ROOT
HETATM    1  N   UNL     1     -21.200  -6.518  -4.151  1.00  0.00    -0.341 N 
HETATM    2  C   UNL     1     -21.446  -6.355  -5.497  1.00  0.00     0.320 C 
HETATM    3  O   UNL     1     -21.436  -7.294  -6.286  1.00  0.00    -0.247 OA
HETATM    4  N   UNL     1     -21.625  -5.030  -5.830  1.00  0.00    -0.308 N 
HETATM    5  H   UNL     1     -21.779  -5.933  -3.561  1.00  0.00     0.164 HD
HETATM    6  H   UNL     1     -21.073  -4.393  -5.267  1.00  0.00     0.170 HD
ENDROOT
BRANCH   1   7
HETATM    7  C   UNL     1     -20.892  -7.854  -3.650  1.00  0.00     0.144 C 
BRANCH   7   8
HETATM    8  C   UNL     1     -20.476  -7.862  -2.160  1.00  0.00     0.142 C 
BRANCH   8   9
HETATM    9  N   UNL     1     -21.532  -8.414  -1.295  1.00  0.00    -0.380 N 
BRANCH   9  10
HETATM   10  C   UNL     1     -22.458  -7.521  -0.572  1.00  0.00     0.118 C 
HETATM   11  C   UNL     1     -23.098  -8.046   0.699  1.00  0.00     0.026 C 
ENDBRANCH   9  10
BRANCH   9  12
HETATM   12  C   UNL     1     -21.751  -9.798  -1.208  1.00  0.00     0.030 A 
HETATM   13  C   UNL     1     -22.908 -10.399  -1.739  1.00  0.00     0.029 A 
HETATM   14  C   UNL     1     -23.156 -11.775  -1.655  1.00  0.00     0.003 A 
HETATM   15  C   UNL     1     -22.241 -12.609  -1.028  1.00  0.00     0.007 A 
HETATM   16  C   UNL     1     -21.074 -12.068  -0.492  1.00  0.00    -0.060 A 
HETATM   17  C   UNL     1     -20.066 -12.948   0.188  1.00  0.00     0.048 C 
HETATM   18  C   UNL     1     -20.846 -10.680  -0.587  1.00  0.00     0.036 A 
ENDBRANCH   9  12
ENDBRANCH   8   9
ENDBRANCH   7   8
ENDBRANCH   1   7
BRANCH   4  19
HETATM   19  C   UNL     1     -21.834  -4.640  -7.174  1.00  0.00     0.053 A 
HETATM   20  C   UNL     1     -23.136  -4.493  -7.671  1.00  0.00     0.031 A 
HETATM   21  C   UNL     1     -23.351  -4.153  -9.007  1.00  0.00     0.002 A 
HETATM   22  C   UNL     1     -22.269  -3.948  -9.857  1.00  0.00     0.002 A 
HETATM   23  C   UNL     1     -20.966  -4.064  -9.368  1.00  0.00     0.021 A 
HETATM   24  C   UNL     1     -20.749  -4.389  -8.025  1.00  0.00     0.037 A 
HETATM   25 BR   UNL     1     -18.955  -4.595  -7.432  1.00  0.00    -0.049 Br
ENDBRANCH   4  19
TORSDOF 6
ENDMDL
MODEL 3
REMARK VINA RESULT:      -7.1      2.296      3.538
REMARK  6 active torsions:
REMARK  status: ('A' for Active; 'I' for Inactive)
REMARK    1  A    between atoms: C_2  and  N_3 
REMARK    2  A    between atoms: N_3  and  C_4 
REMARK    3  A    between atoms: N_3  and  C_17 
REMARK    4  A    between atoms: C_4  and  C_5 
REMARK    5  A    between atoms: C_5  and  N_6 
REMARK       I    between atoms: N_6  and  C_7 
REMARK       I    between atoms: C_7  and  N_9 
REMARK    6  A    between atoms: N_9  and  C_10 
ROOT
HETATM    1  N   UNL     1     -21.549  -6.802  -4.235  1.00  0.00    -0.341 N 
HETATM    2  C   UNL     1     -21.658  -6.547  -5.586  1.00  0.00     0.320 C 
HETATM    3  O   UNL     1     -21.550  -7.427  -6.432  1.00  0.00    -0.247 OA
HETATM    4  N   UNL     1     -21.823  -5.203  -5.842  1.00  0.00    -0.308 N 
HETATM    5  H   UNL     1     -22.196  -6.265  -3.670  1.00  0.00     0.164 HD
HETATM    6  H   UNL     1     -21.343  -4.602  -5.182  1.00  0.00     0.170 HD
ENDROOT
BRANCH   1   7
HETATM    7  C   UNL     1     -21.272  -8.167  -3.799  1.00  0.00     0.144 C 
BRANCH   7   8
HETATM    8  C   UNL     1     -19.963  -8.290  -2.985  1.00  0.00     0.142 C 
BRANCH   8   9
HETATM    9  N   UNL     1     -18.986  -9.177  -3.641  1.00  0.00    -0.380 N 
BRANCH   9  10
HETATM   10  C   UNL     1     -18.917  -9.264  -5.112  1.00  0.00     0.118 C 
HETATM   11  C   UNL     1     -19.050 -10.636  -5.745  1.00  0.00     0.026 C 
ENDBRANCH   9  10
BRANCH   9  12
HETATM   12  C   UNL     1     -18.033  -9.887  -2.893  1.00  0.00     0.030 A 
HETATM   13  C   UNL     1     -16.652  -9.663  -3.051  1.00  0.00     0.029 A 
HETATM   14  C   UNL     1     -15.681 -10.366  -2.326  1.00  0.00     0.003 A 
HETATM   15  C   UNL     1     -16.065 -11.332  -1.407  1.00  0.00     0.007 A 
HETATM   16  C   UNL     1     -17.419 -11.589  -1.205  1.00  0.00    -0.060 A 
HETATM   17  C   UNL     1     -17.861 -12.624  -0.213  1.00  0.00     0.048 C 
HETATM   18  C   UNL     1     -18.379 -10.869  -1.946  1.00  0.00     0.036 A 
ENDBRANCH   9  12
ENDBRANCH   8   9
ENDBRANCH   7   8
ENDBRANCH   1   7
BRANCH   4  19
HETATM   19  C   UNL     1     -21.899  -4.720  -7.171  1.00  0.00     0.053 A 
HETATM   20  C   UNL     1     -23.145  -4.520  -7.778  1.00  0.00     0.031 A 
HETATM   21  C   UNL     1     -23.228  -4.088  -9.102  1.00  0.00     0.002 A 
HETATM   22  C   UNL     1     -22.067  -3.845  -9.829  1.00  0.00     0.002 A 
HETATM   23  C   UNL     1     -20.819  -4.014  -9.228  1.00  0.00     0.021 A 
HETATM   24  C   UNL     1     -20.734  -4.431  -7.895  1.00  0.00     0.037 A 
HETATM   25 BR   UNL     1     -19.008  -4.705  -7.150  1.00  0.00    -0.049 Br
ENDBRANCH   4  19
TORSDOF 6
ENDMDL
MODEL 4
REMARK VINA RESULT:      -7.0      1.562      4.002
REMARK  6 active torsions:
REMARK  status: ('A' for Active; 'I' for Inactive)
REMARK    1  A    between atoms: C_2  and  N_3 
REMARK    2  A    between atoms: N_3  and  C_4 
REMARK    3  A    between atoms: N_3  and  C_17 
REMARK    4  A    between atoms: C_4  and  C_5 
REMARK    5  A    between atoms: C_5  and  N_6 
REMARK       I    between atoms: N_6  and  C_7 
REMARK       I    between atoms: C_7  and  N_9 
REMARK    6  A    between atoms: N_9  and  C_10 
ROOT
HETATM    1  N   UNL     1     -21.423  -6.747  -4.209  1.00  0.00    -0.341 N 
HETATM    2  C   UNL     1     -21.589  -6.503  -5.555  1.00  0.00     0.320 C 
HETATM    3  O   UNL     1     -21.553  -7.396  -6.395  1.00  0.00    -0.247 OA
HETATM    4  N   UNL     1     -21.720  -5.158  -5.821  1.00  0.00    -0.308 N 
HETATM    5  H   UNL     1     -22.022  -6.182  -3.620  1.00  0.00     0.164 HD
HETATM    6  H   UNL     1     -21.188  -4.567  -5.193  1.00  0.00     0.170 HD
ENDROOT
BRANCH   1   7
HETATM    7  C   UNL     1     -21.171  -8.116  -3.769  1.00  0.00     0.144 C 
BRANCH   7   8
HETATM    8  C   UNL     1     -20.253  -8.196  -2.527  1.00  0.00     0.142 C 
BRANCH   8   9
HETATM    9  N   UNL     1     -19.576  -9.500  -2.423  1.00  0.00    -0.380 N 
BRANCH   9  10
HETATM   10  C   UNL     1     -20.164 -10.593  -1.624  1.00  0.00     0.118 C 
HETATM   11  C   UNL     1     -20.704 -10.249  -0.249  1.00  0.00     0.026 C 
ENDBRANCH   9  10
BRANCH   9  12
HETATM   12  C   UNL     1     -18.409  -9.773  -3.155  1.00  0.00     0.030 A 
HETATM   13  C   UNL     1     -17.140  -9.361  -2.704  1.00  0.00     0.029 A 
HETATM   14  C   UNL     1     -15.963  -9.609  -3.421  1.00  0.00     0.003 A 
HETATM   15  C   UNL     1     -16.016 -10.287  -4.631  1.00  0.00     0.007 A 
HETATM   16  C   UNL     1     -17.244 -10.723  -5.120  1.00  0.00    -0.060 A 
HETATM   17  C   UNL     1     -17.329 -11.461  -6.424  1.00  0.00     0.048 C 
HETATM   18  C   UNL     1     -18.417 -10.462  -4.382  1.00  0.00     0.036 A 
ENDBRANCH   9  12
ENDBRANCH   8   9
ENDBRANCH   7   8
ENDBRANCH   1   7
BRANCH   4  19
HETATM   19  C   UNL     1     -21.845  -4.687  -7.150  1.00  0.00     0.053 A 
HETATM   20  C   UNL     1     -23.113  -4.494  -7.713  1.00  0.00     0.031 A 
HETATM   21  C   UNL     1     -23.244  -4.074  -9.038  1.00  0.00     0.002 A 
HETATM   22  C   UNL     1     -22.111  -3.836  -9.809  1.00  0.00     0.002 A 
HETATM   23  C   UNL     1     -20.841  -3.999  -9.251  1.00  0.00     0.021 A 
HETATM   24  C   UNL     1     -20.708  -4.403  -7.919  1.00  0.00     0.037 A 
HETATM   25 BR   UNL     1     -18.955  -4.669  -7.234  1.00  0.00    -0.049 Br
ENDBRANCH   4  19
TORSDOF 6
ENDMDL
MODEL 5
REMARK VINA RESULT:      -7.0      4.050      7.517
REMARK  6 active torsions:
REMARK  status: ('A' for Active; 'I' for Inactive)
REMARK    1  A    between atoms: C_2  and  N_3 
REMARK    2  A    between atoms: N_3  and  C_4 
REMARK    3  A    between atoms: N_3  and  C_17 
REMARK    4  A    between atoms: C_4  and  C_5 
REMARK    5  A    between atoms: C_5  and  N_6 
REMARK       I    between atoms: N_6  and  C_7 
REMARK       I    between atoms: C_7  and  N_9 
REMARK    6  A    between atoms: N_9  and  C_10 
ROOT
HETATM    1  N   UNL     1     -18.606 -11.057  -1.604  1.00  0.00    -0.341 N 
HETATM    2  C   UNL     1     -17.779 -11.683  -2.513  1.00  0.00     0.320 C 
HETATM    3  O   UNL     1     -18.036 -12.785  -2.984  1.00  0.00    -0.247 OA
HETATM    4  N   UNL     1     -16.632 -10.957  -2.747  1.00  0.00    -0.308 N 
HETATM    5  H   UNL     1     -18.673 -10.056  -1.743  1.00  0.00     0.164 HD
HETATM    6  H   UNL     1     -16.307 -10.439  -1.940  1.00  0.00     0.170 HD
ENDROOT
BRANCH   1   7
HETATM    7  C   UNL     1     -19.820 -11.742  -1.171  1.00  0.00     0.144 C 
BRANCH   7   8
HETATM    8  C   UNL     1     -21.078 -11.300  -1.954  1.00  0.00     0.142 C 
BRANCH   8   9
HETATM    9  N   UNL     1     -21.843 -10.267  -1.235  1.00  0.00    -0.380 N 
BRANCH   9  10
HETATM   10  C   UNL     1     -22.574 -10.598   0.004  1.00  0.00     0.118 C 
HETATM   11  C   UNL     1     -23.990 -11.127  -0.133  1.00  0.00     0.026 C 
ENDBRANCH   9  10
BRANCH   9  12
HETATM   12  C   UNL     1     -21.819  -8.926  -1.648  1.00  0.00     0.030 A 
HETATM   13  C   UNL     1     -22.261  -7.885  -0.809  1.00  0.00     0.029 A 
HETATM   14  C   UNL     1     -22.259  -6.540  -1.202  1.00  0.00     0.003 A 
HETATM   15  C   UNL     1     -21.810  -6.187  -2.467  1.00  0.00     0.007 A 
HETATM   16  C   UNL     1     -21.354  -7.176  -3.335  1.00  0.00    -0.060 A 
HETATM   17  C   UNL     1     -20.859  -6.820  -4.706  1.00  0.00     0.048 C 
HETATM   18  C   UNL     1     -21.366  -8.524  -2.918  1.00  0.00     0.036 A 
ENDBRANCH   9  12
ENDBRANCH   8   9
ENDBRANCH   7   8
ENDBRANCH   1   7
BRANCH   4  19
HETATM   19  C   UNL     1     -15.622 -11.452  -3.608  1.00  0.00     0.053 A 
HETATM   20  C   UNL     1     -14.601 -12.265  -3.101  1.00  0.00     0.031 A 
HETATM   21  C   UNL     1     -13.576 -12.718  -3.933  1.00  0.00     0.002 A 
HETATM   22  C   UNL     1     -13.567 -12.370  -5.280  1.00  0.00     0.002 A 
HETATM   23  C   UNL     1     -14.594 -11.583  -5.804  1.00  0.00     0.021 A 
HETATM   24  C   UNL     1     -15.630 -11.142  -4.974  1.00  0.00     0.037 A 
HETATM   25 BR   UNL     1     -16.966 -10.021  -5.730  1.00  0.00    -0.049 Br
ENDBRANCH   4  19
TORSDOF 6
ENDMDL
MODEL 6
REMARK VINA RESULT:      -7.0     17.825     19.513
REMARK  6 active torsions:
REMARK  status: ('A' for Active; 'I' for Inactive)
REMARK    1  A    between atoms: C_2  and  N_3 
REMARK    2  A    between atoms: N_3  and  C_4 
REMARK    3  A    between atoms: N_3  and  C_17 
REMARK    4  A    between atoms: C_4  and  C_5 
REMARK    5  A    between atoms: C_5  and  N_6 
REMARK       I    between atoms: N_6  and  C_7 
REMARK       I    between atoms: C_7  and  N_9 
REMARK    6  A    between atoms: N_9  and  C_10 
ROOT
HETATM    1  N   UNL     1     -19.307  10.261   3.725  1.00  0.00    -0.341 N 
HETATM    2  C   UNL     1     -18.232   9.691   4.374  1.00  0.00     0.320 C 
HETATM    3  O   UNL     1     -18.344   8.700   5.087  1.00  0.00    -0.247 OA
HETATM    4  N   UNL     1     -17.074  10.410   4.175  1.00  0.00    -0.308 N 
HETATM    5  H   UNL     1     -19.086  10.596   2.795  1.00  0.00     0.164 HD
HETATM    6  H   UNL     1     -17.226  11.408   4.084  1.00  0.00     0.170 HD
ENDROOT
BRANCH   1   7
HETATM    7  C   UNL     1     -20.631   9.676   3.914  1.00  0.00     0.144 C 
BRANCH   7   8
HETATM    8  C   UNL     1     -21.232   9.099   2.611  1.00  0.00     0.142 C 
BRANCH   8   9
HETATM    9  N   UNL     1     -22.574   9.639   2.334  1.00  0.00    -0.380 N 
BRANCH   9  10
HETATM   10  C   UNL     1     -23.014  10.911   2.939  1.00  0.00     0.118 C 
HETATM   11  C   UNL     1     -22.848  12.177   2.118  1.00  0.00     0.026 C 
ENDBRANCH   9  10
BRANCH   9  12
HETATM   12  C   UNL     1     -23.433   9.014   1.417  1.00  0.00     0.030 A 
HETATM   13  C   UNL     1     -24.834   9.110   1.530  1.00  0.00     0.029 A 
HETATM   14  C   UNL     1     -25.712   8.486   0.636  1.00  0.00     0.003 A 
HETATM   15  C   UNL     1     -25.213   7.732  -0.417  1.00  0.00     0.007 A 
HETATM   16  C   UNL     1     -23.835   7.609  -0.580  1.00  0.00    -0.060 A 
HETATM   17  C   UNL     1     -23.269   6.803  -1.712  1.00  0.00     0.048 C 
HETATM   18  C   UNL     1     -22.969   8.246   0.333  1.00  0.00     0.036 A 
ENDBRANCH   9  12
ENDBRANCH   8   9
ENDBRANCH   7   8
ENDBRANCH   1   7
BRANCH   4  19
HETATM   19  C   UNL     1     -15.863  10.026   4.800  1.00  0.00     0.053 A 
HETATM   20  C   UNL     1     -15.583  10.444   6.107  1.00  0.00     0.031 A 
HETATM   21  C   UNL     1     -14.371  10.108   6.715  1.00  0.00     0.002 A 
HETATM   22  C   UNL     1     -13.434   9.346   6.025  1.00  0.00     0.002 A 
HETATM   23  C   UNL     1     -13.713   8.900   4.732  1.00  0.00     0.021 A 
HETATM   24  C   UNL     1     -14.933   9.222   4.128  1.00  0.00     0.037 A 
HETATM   25 BR   UNL     1     -15.230   8.640   2.343  1.00  0.00    -0.049 Br
ENDBRANCH   4  19
TORSDOF 6
ENDMDL
MODEL 7
REMARK VINA RESULT:      -7.0      4.676      7.262
REMARK  6 active torsions:
REMARK  status: ('A' for Active; 'I' for Inactive)
REMARK    1  A    between atoms: C_2  and  N_3 
REMARK    2  A    between atoms: N_3  and  C_4 
REMARK    3  A    between atoms: N_3  and  C_17 
REMARK    4  A    between atoms: C_4  and  C_5 
REMARK    5  A    between atoms: C_5  and  N_6 
REMARK       I    between atoms: N_6  and  C_7 
REMARK       I    between atoms: C_7  and  N_9 
REMARK    6  A    between atoms: N_9  and  C_10 
ROOT
HETATM    1  N   UNL     1     -18.851 -11.534  -0.315  1.00  0.00    -0.341 N 
HETATM    2  C   UNL     1     -18.468 -11.364  -1.628  1.00  0.00     0.320 C 
HETATM    3  O   UNL     1     -19.278 -11.300  -2.546  1.00  0.00    -0.247 OA
HETATM    4  N   UNL     1     -17.097 -11.353  -1.766  1.00  0.00    -0.308 N 
HETATM    5  H   UNL     1     -18.291 -11.002   0.340  1.00  0.00     0.164 HD
HETATM    6  H   UNL     1     -16.618 -11.951  -1.102  1.00  0.00     0.170 HD
ENDROOT
BRANCH   1   7
HETATM    7  C   UNL     1     -20.272 -11.666  -0.010  1.00  0.00     0.144 C 
BRANCH   7   8
HETATM    8  C   UNL     1     -20.892 -10.371   0.566  1.00  0.00     0.142 C 
BRANCH   8   9
HETATM    9  N   UNL     1     -22.022  -9.890  -0.248  1.00  0.00    -0.380 N 
BRANCH   9  10
HETATM   10  C   UNL     1     -23.340 -10.549  -0.171  1.00  0.00     0.118 C 
HETATM   11  C   UNL     1     -23.832 -11.286  -1.402  1.00  0.00     0.026 C 
ENDBRANCH   9  10
BRANCH   9  12
HETATM   12  C   UNL     1     -21.906  -8.738  -1.041  1.00  0.00     0.030 A 
HETATM   13  C   UNL     1     -22.370  -7.484  -0.598  1.00  0.00     0.029 A 
HETATM   14  C   UNL     1     -22.278  -6.322  -1.375  1.00  0.00     0.003 A 
HETATM   15  C   UNL     1     -21.711  -6.376  -2.640  1.00  0.00     0.007 A 
HETATM   16  C   UNL     1     -21.228  -7.589  -3.126  1.00  0.00    -0.060 A 
HETATM   17  C   UNL     1     -20.607  -7.673  -4.489  1.00  0.00     0.048 C 
HETATM   18  C   UNL     1     -21.332  -8.746  -2.326  1.00  0.00     0.036 A 
ENDBRANCH   9  12
ENDBRANCH   8   9
ENDBRANCH   7   8
ENDBRANCH   1   7
BRANCH   4  19
HETATM   19  C   UNL     1     -16.495 -11.246  -3.042  1.00  0.00     0.053 A 
HETATM   20  C   UNL     1     -16.264  -9.986  -3.609  1.00  0.00     0.031 A 
HETATM   21  C   UNL     1     -15.713  -9.873  -4.886  1.00  0.00     0.002 A 
HETATM   22  C   UNL     1     -15.380 -11.017  -5.605  1.00  0.00     0.002 A 
HETATM   23  C   UNL     1     -15.579 -12.278  -5.041  1.00  0.00     0.021 A 
HETATM   24  C   UNL     1     -16.116 -12.392  -3.754  1.00  0.00     0.037 A 
HETATM   25 BR   UNL     1     -16.423 -14.136  -3.064  1.00  0.00    -0.049 Br
ENDBRANCH   4  19
TORSDOF 6
ENDMDL
MODEL 8
REMARK VINA RESULT:      -6.9      6.592      8.830
REMARK  6 active torsions:
REMARK  status: ('A' for Active; 'I' for Inactive)
REMARK    1  A    between atoms: C_2  and  N_3 
REMARK    2  A    between atoms: N_3  and  C_4 
REMARK    3  A    between atoms: N_3  and  C_17 
REMARK    4  A    between atoms: C_4  and  C_5 
REMARK    5  A    between atoms: C_5  and  N_6 
REMARK       I    between atoms: N_6  and  C_7 
REMARK       I    between atoms: C_7  and  N_9 
REMARK    6  A    between atoms: N_9  and  C_10 
ROOT
HETATM    1  N   UNL     1     -19.426 -13.313  -0.630  1.00  0.00    -0.341 N 
HETATM    2  C   UNL     1     -20.021 -12.075  -0.749  1.00  0.00     0.320 C 
HETATM    3  O   UNL     1     -19.765 -11.309  -1.672  1.00  0.00    -0.247 OA
HETATM    4  N   UNL     1     -20.854 -11.802   0.313  1.00  0.00    -0.308 N 
HETATM    5  H   UNL     1     -20.055 -14.033  -0.296  1.00  0.00     0.164 HD
HETATM    6  H   UNL     1     -20.541 -12.205   1.189  1.00  0.00     0.170 HD
ENDROOT
BRANCH   1   7
HETATM    7  C   UNL     1     -18.437 -13.715  -1.626  1.00  0.00     0.144 C 
BRANCH   7   8
HETATM    8  C   UNL     1     -16.998 -13.772  -1.063  1.00  0.00     0.142 C 
BRANCH   8   9
HETATM    9  N   UNL     1     -16.380 -12.436  -0.988  1.00  0.00    -0.380 N 
BRANCH   9  10
HETATM   10  C   UNL     1     -15.964 -11.871   0.310  1.00  0.00     0.118 C 
HETATM   11  C   UNL     1     -15.902 -12.809   1.501  1.00  0.00     0.026 C 
ENDBRANCH   9  10
BRANCH   9  12
HETATM   12  C   UNL     1     -16.083 -11.707  -2.150  1.00  0.00     0.030 A 
HETATM   13  C   UNL     1     -16.544 -10.390  -2.336  1.00  0.00     0.029 A 
HETATM   14  C   UNL     1     -16.272  -9.646  -3.491  1.00  0.00     0.003 A 
HETATM   15  C   UNL     1     -15.519 -10.203  -4.515  1.00  0.00     0.007 A 
HETATM   16  C   UNL     1     -15.031 -11.501  -4.381  1.00  0.00    -0.060 A 
HETATM   17  C   UNL     1     -14.212 -12.126  -5.471  1.00  0.00     0.048 C 
HETATM   18  C   UNL     1     -15.318 -12.232  -3.209  1.00  0.00     0.036 A 
ENDBRANCH   9  12
ENDBRANCH   8   9
ENDBRANCH   7   8
ENDBRANCH   1   7
BRANCH   4  19
HETATM   19  C   UNL     1     -21.521 -10.558   0.413  1.00  0.00     0.053 A 
HETATM   20  C   UNL     1     -20.885  -9.463   1.013  1.00  0.00     0.031 A 
HETATM   21  C   UNL     1     -21.553  -8.246   1.157  1.00  0.00     0.002 A 
HETATM   22  C   UNL     1     -22.858  -8.109   0.696  1.00  0.00     0.002 A 
HETATM   23  C   UNL     1     -23.494  -9.183   0.071  1.00  0.00     0.021 A 
HETATM   24  C   UNL     1     -22.820 -10.398  -0.088  1.00  0.00     0.037 A 
HETATM   25 BR   UNL     1     -23.759 -11.844  -0.889  1.00  0.00    -0.049 Br
ENDBRANCH   4  19
TORSDOF 6
ENDMDL
MODEL 9
REMARK VINA RESULT:      -6.7      4.596      9.177
REMARK  6 active torsions:
REMARK  status: ('A' for Active; 'I' for Inactive)
REMARK    1  A    between atoms: C_2  and  N_3 
REMARK    2  A    between atoms: N_3  and  C_4 
REMARK    3  A    between atoms: N_3  and  C_17 
REMARK    4  A    between atoms: C_4  and  C_5 
REMARK    5  A    between atoms: C_5  and  N_6 
REMARK       I    between atoms: N_6  and  C_7 
REMARK       I    between atoms: C_7  and  N_9 
REMARK    6  A    between atoms: N_9  and  C_10 
ROOT
HETATM    1  N   UNL     1     -17.543 -10.579  -2.074  1.00  0.00    -0.341 N 
HETATM    2  C   UNL     1     -17.298 -11.669  -1.267  1.00  0.00     0.320 C 
HETATM    3  O   UNL     1     -18.136 -12.541  -1.067  1.00  0.00    -0.247 OA
HETATM    4  N   UNL     1     -16.053 -11.603  -0.680  1.00  0.00    -0.308 N 
HETATM    5  H   UNL     1     -16.745 -10.305  -2.635  1.00  0.00     0.164 HD
HETATM    6  H   UNL     1     -15.751 -10.658  -0.474  1.00  0.00     0.170 HD
ENDROOT
BRANCH   1   7
HETATM    7  C   UNL     1     -18.857 -10.446  -2.695  1.00  0.00     0.144 C 
BRANCH   7   8
HETATM    8  C   UNL     1     -19.236  -8.980  -3.006  1.00  0.00     0.142 C 
BRANCH   8   9
HETATM    9  N   UNL     1     -20.693  -8.799  -3.128  1.00  0.00    -0.380 N 
BRANCH   9  10
HETATM   10  C   UNL     1     -21.335  -8.726  -4.455  1.00  0.00     0.118 C 
HETATM   11  C   UNL     1     -21.899  -7.387  -4.894  1.00  0.00     0.026 C 
ENDBRANCH   9  10
BRANCH   9  12
HETATM   12  C   UNL     1     -21.521  -8.790  -1.995  1.00  0.00     0.030 A 
HETATM   13  C   UNL     1     -21.631  -7.655  -1.168  1.00  0.00     0.029 A 
HETATM   14  C   UNL     1     -22.440  -7.624  -0.025  1.00  0.00     0.003 A 
HETATM   15  C   UNL     1     -23.176  -8.743   0.336  1.00  0.00     0.007 A 
HETATM   16  C   UNL     1     -23.111  -9.891  -0.451  1.00  0.00    -0.060 A 
HETATM   17  C   UNL     1     -23.900 -11.113  -0.085  1.00  0.00     0.048 C 
HETATM   18  C   UNL     1     -22.289  -9.900  -1.597  1.00  0.00     0.036 A 
ENDBRANCH   9  12
ENDBRANCH   8   9
ENDBRANCH   7   8
ENDBRANCH   1   7
BRANCH   4  19
HETATM   19  C   UNL     1     -15.625 -12.597   0.232  1.00  0.00     0.053 A 
HETATM   20  C   UNL     1     -15.974 -12.509   1.586  1.00  0.00     0.031 A 
HETATM   21  C   UNL     1     -15.518 -13.461   2.500  1.00  0.00     0.002 A 
HETATM   22  C   UNL     1     -14.716 -14.513   2.068  1.00  0.00     0.002 A 
HETATM   23  C   UNL     1     -14.384 -14.628   0.717  1.00  0.00     0.021 A 
HETATM   24  C   UNL     1     -14.854 -13.684  -0.202  1.00  0.00     0.037 A 
HETATM   25 BR   UNL     1     -14.317 -13.857  -2.017  1.00  0.00    -0.049 Br
ENDBRANCH   4  19
TORSDOF 6
ENDMDL
