MODEL 1
REMARK VINA RESULT:      -9.9      0.000      0.000
REMARK  4 active torsions:
REMARK  status: ('A' for Active; 'I' for Inactive)
REMARK       I    between atoms: C_2  and  N_3 
REMARK       I    between atoms: C_2  and  N_15 
REMARK    1  A    between atoms: N_3  and  C_4 
REMARK    2  A    between atoms: C_4  and  C_5 
REMARK    3  A    between atoms: C_8  and  C_9 
REMARK    4  A    between atoms: N_15  and  C_16 
ROOT
HETATM    1  O   UNL     1     -19.991  -6.377  -7.354  1.00  0.00    -0.247 OA
HETATM    2  C   UNL     1     -20.974  -5.929  -6.775  1.00  0.00     0.321 C 
HETATM    3  N   UNL     1     -21.433  -6.496  -5.609  1.00  0.00    -0.339 N 
HETATM    4  N   UNL     1     -21.759  -4.865  -7.190  1.00  0.00    -0.308 N 
HETATM    5  H   UNL     1     -22.174  -6.059  -5.086  1.00  0.00     0.164 HD
HETATM    6  H   UNL     1     -22.674  -4.823  -6.775  1.00  0.00     0.170 HD
ENDROOT
BRANCH   3   7
HETATM    7  C   UNL     1     -20.771  -7.646  -5.019  1.00  0.00     0.162 C 
BRANCH   7   8
HETATM    8  C   UNL     1     -21.148  -7.840  -3.569  1.00  0.00    -0.040 A 
HETATM    9  C   UNL     1     -21.614  -6.766  -2.799  1.00  0.00     0.009 A 
HETATM   10  C   UNL     1     -22.014  -6.959  -1.470  1.00  0.00     0.017 A 
HETATM   11  C   UNL     1     -21.953  -8.234  -0.892  1.00  0.00     0.047 A 
HETATM   12  C   UNL     1     -21.484  -9.311  -1.665  1.00  0.00     0.017 A 
HETATM   13  C   UNL     1     -21.086  -9.115  -2.991  1.00  0.00     0.009 A 
BRANCH  11  14
HETATM   14  C   UNL     1     -22.393  -8.464   0.534  1.00  0.00     0.417 C 
HETATM   15  F   UNL     1     -21.956  -7.508   1.401  1.00  0.00    -0.166 F 
HETATM   16  F   UNL     1     -23.749  -8.495   0.667  1.00  0.00    -0.166 F 
HETATM   17  F   UNL     1     -21.947  -9.650   1.032  1.00  0.00    -0.166 F 
ENDBRANCH  11  14
ENDBRANCH   7   8
ENDBRANCH   3   7
BRANCH   4  18
HETATM   18  C   UNL     1     -21.583  -4.140  -8.411  1.00  0.00     0.047 C 
HETATM   19  C   UNL     1     -20.294  -3.845  -8.881  1.00  0.00     0.030 C 
HETATM   20  C   UNL     1     -20.091  -3.320 -10.156  1.00  0.00     0.003 C 
HETATM   21  C   UNL     1     -21.175  -3.136 -11.000  1.00  0.00     0.014 C 
HETATM   22  C   UNL     1     -22.478  -3.363 -10.537  1.00  0.00    -0.008 C 
HETATM   23  C   UNL     1     -23.574  -3.169 -11.379  1.00  0.00     0.100 C 
HETATM   24  C   UNL     1     -22.711  -3.770  -9.201  1.00  0.00     0.004 C 
HETATM   25  N   UNL     1     -24.861  -3.197 -10.978  1.00  0.00    -0.374 N 
HETATM   26  C   UNL     1     -25.069  -3.439  -9.672  1.00  0.00     0.088 C 
ATOM     27  HN  UNL     1     -25.632  -3.044 -11.628  1.00  0.00     0.164 HD
HETATM   28  C   UNL     1     -24.059  -3.760  -8.771  1.00  0.00     0.031 C 
ENDBRANCH   4  18
TORSDOF 4
ENDMDL
MODEL 2
REMARK VINA RESULT:      -9.7      4.799      9.424
REMARK  4 active torsions:
REMARK  status: ('A' for Active; 'I' for Inactive)
REMARK       I    between atoms: C_2  and  N_3 
REMARK       I    between atoms: C_2  and  N_15 
REMARK    1  A    between atoms: N_3  and  C_4 
REMARK    2  A    between atoms: C_4  and  C_5 
REMARK    3  A    between atoms: C_8  and  C_9 
REMARK    4  A    between atoms: N_15  and  C_16 
ROOT
HETATM    1  O   UNL     1     -20.198  -4.909  -4.434  1.00  0.00    -0.247 OA
HETATM    2  C   UNL     1     -20.319  -6.001  -4.975  1.00  0.00     0.321 C 
HETATM    3  N   UNL     1     -20.103  -6.156  -6.325  1.00  0.00    -0.339 N 
HETATM    4  N   UNL     1     -20.705  -7.184  -4.362  1.00  0.00    -0.308 N 
HETATM    5  H   UNL     1     -20.102  -7.074  -6.739  1.00  0.00     0.164 HD
HETATM    6  H   UNL     1     -21.039  -7.898  -4.987  1.00  0.00     0.170 HD
ENDROOT
BRANCH   3   7
HETATM    7  C   UNL     1     -19.723  -5.031  -7.160  1.00  0.00     0.162 C 
BRANCH   7   8
HETATM    8  C   UNL     1     -20.859  -4.564  -8.040  1.00  0.00    -0.040 A 
HETATM    9  C   UNL     1     -20.631  -4.200  -9.374  1.00  0.00     0.009 A 
HETATM   10  C   UNL     1     -21.694  -3.817 -10.202  1.00  0.00     0.017 A 
HETATM   11  C   UNL     1     -23.004  -3.796  -9.706  1.00  0.00     0.047 A 
HETATM   12  C   UNL     1     -23.232  -4.160  -8.367  1.00  0.00     0.017 A 
HETATM   13  C   UNL     1     -22.169  -4.541  -7.543  1.00  0.00     0.009 A 
BRANCH  11  14
HETATM   14  C   UNL     1     -24.165  -3.401 -10.588  1.00  0.00     0.417 C 
HETATM   15  F   UNL     1     -25.222  -2.884  -9.900  1.00  0.00    -0.166 F 
HETATM   16  F   UNL     1     -23.825  -2.459 -11.512  1.00  0.00    -0.166 F 
HETATM   17  F   UNL     1     -24.661  -4.452 -11.298  1.00  0.00    -0.166 F 
ENDBRANCH  11  14
ENDBRANCH   7   8
ENDBRANCH   3   7
BRANCH   4  18
HETATM   18  C   UNL     1     -21.085  -7.313  -2.989  1.00  0.00     0.047 C 
HETATM   19  C   UNL     1     -21.922  -6.359  -2.392  1.00  0.00     0.030 C 
HETATM   20  C   UNL     1     -22.466  -6.563  -1.126  1.00  0.00     0.003 C 
HETATM   21  C   UNL     1     -22.223  -7.756  -0.462  1.00  0.00     0.014 C 
HETATM   22  C   UNL     1     -21.342  -8.700  -1.005  1.00  0.00    -0.008 C 
HETATM   23  C   UNL     1     -21.084  -9.897  -0.337  1.00  0.00     0.100 C 
HETATM   24  C   UNL     1     -20.677  -8.449  -2.230  1.00  0.00     0.004 C 
HETATM   25  N   UNL     1     -20.132 -10.784  -0.693  1.00  0.00    -0.374 N 
HETATM   26  C   UNL     1     -19.403 -10.465  -1.776  1.00  0.00     0.088 C 
ATOM     27  HN  UNL     1     -19.975 -11.646  -0.171  1.00  0.00     0.164 HD
HETATM   28  C   UNL     1     -19.651  -9.358  -2.581  1.00  0.00     0.031 C 
ENDBRANCH   4  18
TORSDOF 4
ENDMDL
MODEL 3
REMARK VINA RESULT:      -9.3      4.755      9.376
REMARK  4 active torsions:
REMARK  status: ('A' for Active; 'I' for Inactive)
REMARK       I    between atoms: C_2  and  N_3 
REMARK       I    between atoms: C_2  and  N_15 
REMARK    1  A    between atoms: N_3  and  C_4 
REMARK    2  A    between atoms: C_4  and  C_5 
REMARK    3  A    between atoms: C_8  and  C_9 
REMARK    4  A    between atoms: N_15  and  C_16 
ROOT
HETATM    1  O   UNL     1     -20.358  -7.727  -5.832  1.00  0.00    -0.247 OA
HETATM    2  C   UNL     1     -20.718  -6.878  -5.027  1.00  0.00     0.321 C 
HETATM    3  N   UNL     1     -20.538  -5.537  -5.278  1.00  0.00    -0.339 N 
HETATM    4  N   UNL     1     -21.299  -7.110  -3.789  1.00  0.00    -0.308 N 
HETATM    5  H   UNL     1     -20.931  -4.845  -4.661  1.00  0.00     0.164 HD
HETATM    6  H   UNL     1     -21.254  -6.339  -3.146  1.00  0.00     0.170 HD
ENDROOT
BRANCH   3   7
HETATM    7  C   UNL     1     -19.916  -5.078  -6.507  1.00  0.00     0.162 C 
BRANCH   7   8
HETATM    8  C   UNL     1     -20.935  -4.621  -7.525  1.00  0.00    -0.040 A 
HETATM    9  C   UNL     1     -20.574  -4.431  -8.866  1.00  0.00     0.009 A 
HETATM   10  C   UNL     1     -21.531  -4.058  -9.819  1.00  0.00     0.017 A 
HETATM   11  C   UNL     1     -22.868  -3.870  -9.441  1.00  0.00     0.047 A 
HETATM   12  C   UNL     1     -23.228  -4.059  -8.095  1.00  0.00     0.017 A 
HETATM   13  C   UNL     1     -22.271  -4.432  -7.147  1.00  0.00     0.009 A 
BRANCH  11  14
HETATM   14  C   UNL     1     -23.917  -3.483 -10.456  1.00  0.00     0.417 C 
HETATM   15  F   UNL     1     -23.481  -2.570 -11.370  1.00  0.00    -0.166 F 
HETATM   16  F   UNL     1     -24.367  -4.547 -11.178  1.00  0.00    -0.166 F 
HETATM   17  F   UNL     1     -25.021  -2.933  -9.879  1.00  0.00    -0.166 F 
ENDBRANCH  11  14
ENDBRANCH   7   8
ENDBRANCH   3   7
BRANCH   4  18
HETATM   18  C   UNL     1     -21.524  -8.402  -3.217  1.00  0.00     0.047 C 
HETATM   19  C   UNL     1     -21.578  -9.541  -4.035  1.00  0.00     0.030 C 
HETATM   20  C   UNL     1     -21.596 -10.823  -3.489  1.00  0.00     0.003 C 
HETATM   21  C   UNL     1     -21.503 -10.984  -2.116  1.00  0.00     0.014 C 
HETATM   22  C   UNL     1     -21.511  -9.866  -1.272  1.00  0.00    -0.008 C 
HETATM   23  C   UNL     1     -21.429 -10.020   0.112  1.00  0.00     0.100 C 
HETATM   24  C   UNL     1     -21.626  -8.558  -1.803  1.00  0.00     0.004 C 
HETATM   25  N   UNL     1     -21.598  -9.024   1.006  1.00  0.00    -0.374 N 
HETATM   26  C   UNL     1     -21.855  -7.808   0.494  1.00  0.00     0.088 C 
ATOM     27  HN  UNL     1     -21.535  -9.185   2.011  1.00  0.00     0.164 HD
HETATM   28  C   UNL     1     -21.843  -7.520  -0.867  1.00  0.00     0.031 C 
ENDBRANCH   4  18
TORSDOF 4
ENDMDL
MODEL 4
REMARK VINA RESULT:      -9.2      4.842      9.445
REMARK  4 active torsions:
REMARK  status: ('A' for Active; 'I' for Inactive)
REMARK       I    between atoms: C_2  and  N_3 
REMARK       I    between atoms: C_2  and  N_15 
REMARK    1  A    between atoms: N_3  and  C_4 
REMARK    2  A    between atoms: C_4  and  C_5 
REMARK    3  A    between atoms: C_8  and  C_9 
REMARK    4  A    between atoms: N_15  and  C_16 
ROOT
HETATM    1  O   UNL     1     -20.984  -5.657  -2.996  1.00  0.00    -0.247 OA
HETATM    2  C   UNL     1     -20.951  -6.646  -3.718  1.00  0.00     0.321 C 
HETATM    3  N   UNL     1     -20.583  -6.551  -5.040  1.00  0.00    -0.339 N 
HETATM    4  N   UNL     1     -21.292  -7.940  -3.356  1.00  0.00    -0.308 N 
HETATM    5  H   UNL     1     -20.457  -7.381  -5.595  1.00  0.00     0.164 HD
HETATM    6  H   UNL     1     -21.495  -8.558  -4.124  1.00  0.00     0.170 HD
ENDROOT
BRANCH   3   7
HETATM    7  C   UNL     1     -20.218  -5.275  -5.630  1.00  0.00     0.162 C 
BRANCH   7   8
HETATM    8  C   UNL     1     -21.109  -4.911  -6.795  1.00  0.00    -0.040 A 
HETATM    9  C   UNL     1     -22.493  -4.769  -6.624  1.00  0.00     0.009 A 
HETATM   10  C   UNL     1     -23.310  -4.380  -7.694  1.00  0.00     0.017 A 
HETATM   11  C   UNL     1     -22.751  -4.124  -8.953  1.00  0.00     0.047 A 
HETATM   12  C   UNL     1     -21.362  -4.268  -9.124  1.00  0.00     0.017 A 
HETATM   13  C   UNL     1     -20.550  -4.656  -8.055  1.00  0.00     0.009 A 
BRANCH  11  14
HETATM   14  C   UNL     1     -23.613  -3.688 -10.114  1.00  0.00     0.417 C 
HETATM   15  F   UNL     1     -22.920  -3.047 -11.097  1.00  0.00    -0.166 F 
HETATM   16  F   UNL     1     -24.241  -4.734 -10.722  1.00  0.00    -0.166 F 
HETATM   17  F   UNL     1     -24.602  -2.832  -9.736  1.00  0.00    -0.166 F 
ENDBRANCH  11  14
ENDBRANCH   7   8
ENDBRANCH   3   7
BRANCH   4  18
HETATM   18  C   UNL     1     -21.801  -8.330  -2.076  1.00  0.00     0.047 C 
HETATM   19  C   UNL     1     -21.958  -7.379  -1.057  1.00  0.00     0.030 C 
HETATM   20  C   UNL     1     -22.632  -7.688   0.123  1.00  0.00     0.003 C 
HETATM   21  C   UNL     1     -23.209  -8.939   0.273  1.00  0.00     0.014 C 
HETATM   22  C   UNL     1     -23.014  -9.928  -0.700  1.00  0.00    -0.008 C 
HETATM   23  C   UNL     1     -23.582 -11.194  -0.549  1.00  0.00     0.100 C 
HETATM   24  C   UNL     1     -22.220  -9.672  -1.844  1.00  0.00     0.004 C 
HETATM   25  N   UNL     1     -23.315 -12.252  -1.340  1.00  0.00    -0.374 N 
HETATM   26  C   UNL     1     -22.441 -12.038  -2.340  1.00  0.00     0.088 C 
ATOM     27  HN  UNL     1     -23.750 -13.163  -1.189  1.00  0.00     0.164 HD
HETATM   28  C   UNL     1     -21.908 -10.791  -2.651  1.00  0.00     0.031 C 
ENDBRANCH   4  18
TORSDOF 4
ENDMDL
MODEL 5
REMARK VINA RESULT:      -8.8      5.028      9.513
REMARK  4 active torsions:
REMARK  status: ('A' for Active; 'I' for Inactive)
REMARK       I    between atoms: C_2  and  N_3 
REMARK       I    between atoms: C_2  and  N_15 
REMARK    1  A    between atoms: N_3  and  C_4 
REMARK    2  A    between atoms: C_4  and  C_5 
REMARK    3  A    between atoms: C_8  and  C_9 
REMARK    4  A    between atoms: N_15  and  C_16 
ROOT
HETATM    1  O   UNL     1     -20.515  -6.470  -4.562  1.00  0.00    -0.247 OA
HETATM    2  C   UNL     1     -20.087  -7.175  -5.467  1.00  0.00     0.321 C 
HETATM    3  N   UNL     1     -19.651  -6.627  -6.651  1.00  0.00    -0.339 N 
HETATM    4  N   UNL     1     -20.009  -8.560  -5.465  1.00  0.00    -0.308 N 
HETATM    5  H   UNL     1     -19.204  -7.203  -7.346  1.00  0.00     0.164 HD
HETATM    6  H   UNL     1     -19.922  -8.983  -6.374  1.00  0.00     0.170 HD
ENDROOT
BRANCH   3   7
HETATM    7  C   UNL     1     -19.679  -5.193  -6.872  1.00  0.00     0.162 C 
BRANCH   7   8
HETATM    8  C   UNL     1     -20.818  -4.778  -7.776  1.00  0.00    -0.040 A 
HETATM    9  C   UNL     1     -22.111  -4.597  -7.265  1.00  0.00     0.009 A 
HETATM   10  C   UNL     1     -23.153  -4.161  -8.093  1.00  0.00     0.017 A 
HETATM   11  C   UNL     1     -22.915  -3.898  -9.449  1.00  0.00     0.047 A 
HETATM   12  C   UNL     1     -21.618  -4.082  -9.961  1.00  0.00     0.017 A 
HETATM   13  C   UNL     1     -20.580  -4.516  -9.132  1.00  0.00     0.009 A 
BRANCH  11  14
HETATM   14  C   UNL     1     -24.022  -3.414 -10.354  1.00  0.00     0.417 C 
HETATM   15  F   UNL     1     -24.676  -4.419 -11.003  1.00  0.00    -0.166 F 
HETATM   16  F   UNL     1     -24.982  -2.718  -9.683  1.00  0.00    -0.166 F 
HETATM   17  F   UNL     1     -23.570  -2.575 -11.328  1.00  0.00    -0.166 F 
ENDBRANCH  11  14
ENDBRANCH   7   8
ENDBRANCH   3   7
BRANCH   4  18
HETATM   18  C   UNL     1     -20.474  -9.408  -4.411  1.00  0.00     0.047 C 
HETATM   19  C   UNL     1     -21.840  -9.711  -4.296  1.00  0.00     0.030 C 
HETATM   20  C   UNL     1     -22.292 -10.686  -3.408  1.00  0.00     0.003 C 
HETATM   21  C   UNL     1     -21.375 -11.412  -2.665  1.00  0.00     0.014 C 
HETATM   22  C   UNL     1     -20.012 -11.089  -2.713  1.00  0.00    -0.008 C 
HETATM   23  C   UNL     1     -19.086 -11.809  -1.958  1.00  0.00     0.100 C 
HETATM   24  C   UNL     1     -19.550 -10.013  -3.509  1.00  0.00     0.004 C 
HETATM   25  N   UNL     1     -17.789 -11.468  -1.810  1.00  0.00    -0.374 N 
HETATM   26  C   UNL     1     -17.392 -10.357  -2.453  1.00  0.00     0.088 C 
ATOM     27  HN  UNL     1     -17.147 -12.022  -1.242  1.00  0.00     0.164 HD
HETATM   28  C   UNL     1     -18.201  -9.632  -3.323  1.00  0.00     0.031 C 
ENDBRANCH   4  18
TORSDOF 4
ENDMDL
MODEL 6
REMARK VINA RESULT:      -8.6     17.435     18.959
REMARK  4 active torsions:
REMARK  status: ('A' for Active; 'I' for Inactive)
REMARK       I    between atoms: C_2  and  N_3 
REMARK       I    between atoms: C_2  and  N_15 
REMARK    1  A    between atoms: N_3  and  C_4 
REMARK    2  A    between atoms: C_4  and  C_5 
REMARK    3  A    between atoms: C_8  and  C_9 
REMARK    4  A    between atoms: N_15  and  C_16 
ROOT
HETATM    1  O   UNL     1     -19.695   8.320   4.176  1.00  0.00    -0.247 OA
HETATM    2  C   UNL     1     -19.517   9.457   3.755  1.00  0.00     0.321 C 
HETATM    3  N   UNL     1     -20.561  10.347   3.645  1.00  0.00    -0.339 N 
HETATM    4  N   UNL     1     -18.317   9.992   3.312  1.00  0.00    -0.308 N 
HETATM    5  H   UNL     1     -20.388  11.308   3.399  1.00  0.00     0.164 HD
HETATM    6  H   UNL     1     -18.403  10.811   2.733  1.00  0.00     0.170 HD
ENDROOT
BRANCH   3   7
HETATM    7  C   UNL     1     -21.911   9.973   4.025  1.00  0.00     0.162 C 
BRANCH   7   8
HETATM    8  C   UNL     1     -22.736   9.532   2.838  1.00  0.00    -0.040 A 
HETATM    9  C   UNL     1     -22.127   8.957   1.714  1.00  0.00     0.009 A 
HETATM   10  C   UNL     1     -22.899   8.501   0.637  1.00  0.00     0.017 A 
HETATM   11  C   UNL     1     -24.295   8.612   0.671  1.00  0.00     0.047 A 
HETATM   12  C   UNL     1     -24.905   9.191   1.798  1.00  0.00     0.017 A 
HETATM   13  C   UNL     1     -24.133   9.645   2.872  1.00  0.00     0.009 A 
BRANCH  11  14
HETATM   14  C   UNL     1     -25.144   8.113  -0.473  1.00  0.00     0.417 C 
HETATM   15  F   UNL     1     -24.871   6.827  -0.834  1.00  0.00    -0.166 F 
HETATM   16  F   UNL     1     -26.477   8.145  -0.191  1.00  0.00    -0.166 F 
HETATM   17  F   UNL     1     -24.987   8.858  -1.602  1.00  0.00    -0.166 F 
ENDBRANCH  11  14
ENDBRANCH   7   8
ENDBRANCH   3   7
BRANCH   4  18
HETATM   18  C   UNL     1     -17.081   9.277   3.220  1.00  0.00     0.047 C 
HETATM   19  C   UNL     1     -16.622   8.814   1.978  1.00  0.00     0.030 C 
HETATM   20  C   UNL     1     -15.337   8.294   1.830  1.00  0.00     0.003 C 
HETATM   21  C   UNL     1     -14.474   8.284   2.915  1.00  0.00     0.014 C 
HETATM   22  C   UNL     1     -14.926   8.682   4.180  1.00  0.00    -0.008 C 
HETATM   23  C   UNL     1     -14.066   8.663   5.278  1.00  0.00     0.100 C 
HETATM   24  C   UNL     1     -16.268   9.088   4.376  1.00  0.00     0.004 C 
HETATM   25  N   UNL     1     -14.450   8.864   6.556  1.00  0.00    -0.374 N 
HETATM   26  C   UNL     1     -15.759   9.103   6.749  1.00  0.00     0.088 C 
ATOM     27  HN  UNL     1     -13.786   8.836   7.330  1.00  0.00     0.164 HD
HETATM   28  C   UNL     1     -16.680   9.259   5.718  1.00  0.00     0.031 C 
ENDBRANCH   4  18
TORSDOF 4
ENDMDL
MODEL 7
REMARK VINA RESULT:      -8.5      5.983     11.078
REMARK  4 active torsions:
REMARK  status: ('A' for Active; 'I' for Inactive)
REMARK       I    between atoms: C_2  and  N_3 
REMARK       I    between atoms: C_2  and  N_15 
REMARK    1  A    between atoms: N_3  and  C_4 
REMARK    2  A    between atoms: C_4  and  C_5 
REMARK    3  A    between atoms: C_8  and  C_9 
REMARK    4  A    between atoms: N_15  and  C_16 
ROOT
HETATM    1  O   UNL     1     -23.808 -10.427   0.014  1.00  0.00    -0.247 OA
HETATM    2  C   UNL     1     -22.676 -10.864   0.183  1.00  0.00     0.321 C 
HETATM    3  N   UNL     1     -21.613 -10.019   0.408  1.00  0.00    -0.339 N 
HETATM    4  N   UNL     1     -22.293 -12.196   0.143  1.00  0.00    -0.308 N 
HETATM    5  H   UNL     1     -20.709 -10.390   0.650  1.00  0.00     0.164 HD
HETATM    6  H   UNL     1     -21.309 -12.352   0.002  1.00  0.00     0.170 HD
ENDROOT
BRANCH   3   7
HETATM    7  C   UNL     1     -21.793  -8.579   0.455  1.00  0.00     0.162 C 
BRANCH   7   8
HETATM    8  C   UNL     1     -21.643  -7.941  -0.907  1.00  0.00    -0.040 A 
HETATM    9  C   UNL     1     -22.247  -6.709  -1.193  1.00  0.00     0.009 A 
HETATM   10  C   UNL     1     -22.063  -6.094  -2.438  1.00  0.00     0.017 A 
HETATM   11  C   UNL     1     -21.268  -6.705  -3.417  1.00  0.00     0.047 A 
HETATM   12  C   UNL     1     -20.664  -7.942  -3.130  1.00  0.00     0.017 A 
HETATM   13  C   UNL     1     -20.849  -8.553  -1.886  1.00  0.00     0.009 A 
BRANCH  11  14
HETATM   14  C   UNL     1     -21.046  -6.051  -4.760  1.00  0.00     0.417 C 
HETATM   15  F   UNL     1     -20.478  -4.814  -4.677  1.00  0.00    -0.166 F 
HETATM   16  F   UNL     1     -20.230  -6.781  -5.571  1.00  0.00    -0.166 F 
HETATM   17  F   UNL     1     -22.204  -5.883  -5.455  1.00  0.00    -0.166 F 
ENDBRANCH  11  14
ENDBRANCH   7   8
ENDBRANCH   3   7
BRANCH   4  18
HETATM   18  C   UNL     1     -23.161 -13.292  -0.164  1.00  0.00     0.047 C 
HETATM   19  C   UNL     1     -23.519 -13.562  -1.493  1.00  0.00     0.030 C 
HETATM   20  C   UNL     1     -24.194 -14.732  -1.837  1.00  0.00     0.003 C 
HETATM   21  C   UNL     1     -24.469 -15.675  -0.859  1.00  0.00     0.014 C 
HETATM   22  C   UNL     1     -24.179 -15.405   0.484  1.00  0.00    -0.008 C 
HETATM   23  C   UNL     1     -24.464 -16.346   1.475  1.00  0.00     0.100 C 
HETATM   24  C   UNL     1     -23.614 -14.165   0.868  1.00  0.00     0.004 C 
HETATM   25  N   UNL     1     -24.378 -16.112   2.800  1.00  0.00    -0.374 N 
HETATM   26  C   UNL     1     -23.981 -14.878   3.159  1.00  0.00     0.088 C 
ATOM     27  HN  UNL     1     -24.602 -16.829   3.491  1.00  0.00     0.164 HD
HETATM   28  C   UNL     1     -23.562 -13.905   2.258  1.00  0.00     0.031 C 
ENDBRANCH   4  18
TORSDOF 4
ENDMDL
MODEL 8
REMARK VINA RESULT:      -8.5      5.196     10.285
REMARK  4 active torsions:
REMARK  status: ('A' for Active; 'I' for Inactive)
REMARK       I    between atoms: C_2  and  N_3 
REMARK       I    between atoms: C_2  and  N_15 
REMARK    1  A    between atoms: N_3  and  C_4 
REMARK    2  A    between atoms: C_4  and  C_5 
REMARK    3  A    between atoms: C_8  and  C_9 
REMARK    4  A    between atoms: N_15  and  C_16 
ROOT
HETATM    1  O   UNL     1     -21.682  -7.511  -1.281  1.00  0.00    -0.247 OA
HETATM    2  C   UNL     1     -21.617  -8.189  -2.299  1.00  0.00     0.321 C 
HETATM    3  N   UNL     1     -21.405  -7.610  -3.529  1.00  0.00    -0.339 N 
HETATM    4  N   UNL     1     -21.770  -9.565  -2.382  1.00  0.00    -0.308 N 
HETATM    5  H   UNL     1     -21.248  -8.182  -4.342  1.00  0.00     0.164 HD
HETATM    6  H   UNL     1     -21.984  -9.915  -3.300  1.00  0.00     0.170 HD
ENDROOT
BRANCH   3   7
HETATM    7  C   UNL     1     -21.251  -6.173  -3.667  1.00  0.00     0.162 C 
BRANCH   7   8
HETATM    8  C   UNL     1     -20.995  -5.763  -5.099  1.00  0.00    -0.040 A 
HETATM    9  C   UNL     1     -21.726  -6.331  -6.151  1.00  0.00     0.009 A 
HETATM   10  C   UNL     1     -21.524  -5.911  -7.472  1.00  0.00     0.017 A 
HETATM   11  C   UNL     1     -20.585  -4.911  -7.759  1.00  0.00     0.047 A 
HETATM   12  C   UNL     1     -19.851  -4.342  -6.704  1.00  0.00     0.017 A 
HETATM   13  C   UNL     1     -20.056  -4.763  -5.386  1.00  0.00     0.009 A 
BRANCH  11  14
HETATM   14  C   UNL     1     -20.364  -4.435  -9.175  1.00  0.00     0.417 C 
HETATM   15  F   UNL     1     -21.516  -4.301  -9.892  1.00  0.00    -0.166 F 
HETATM   16  F   UNL     1     -19.748  -3.221  -9.230  1.00  0.00    -0.166 F 
HETATM   17  F   UNL     1     -19.576  -5.282  -9.893  1.00  0.00    -0.166 F 
ENDBRANCH  11  14
ENDBRANCH   7   8
ENDBRANCH   3   7
BRANCH   4  18
HETATM   18  C   UNL     1     -22.091 -10.424  -1.284  1.00  0.00     0.047 C 
HETATM   19  C   UNL     1     -23.394 -10.454  -0.764  1.00  0.00     0.030 C 
HETATM   20  C   UNL     1     -23.781 -11.418   0.165  1.00  0.00     0.003 C 
HETATM   21  C   UNL     1     -22.882 -12.403   0.543  1.00  0.00     0.014 C 
HETATM   22  C   UNL     1     -21.557 -12.362   0.090  1.00  0.00    -0.008 C 
HETATM   23  C   UNL     1     -20.644 -13.343   0.476  1.00  0.00     0.100 C 
HETATM   24  C   UNL     1     -21.111 -11.312  -0.751  1.00  0.00     0.004 C 
HETATM   25  N   UNL     1     -19.318 -13.295   0.230  1.00  0.00    -0.374 N 
HETATM   26  C   UNL     1     -18.880 -12.217  -0.443  1.00  0.00     0.088 C 
ATOM     27  HN  UNL     1     -18.686 -14.034   0.537  1.00  0.00     0.164 HD
HETATM   28  C   UNL     1     -19.716 -11.241  -0.974  1.00  0.00     0.031 C 
ENDBRANCH   4  18
TORSDOF 4
ENDMDL
MODEL 9
REMARK VINA RESULT:      -8.4      6.149     11.665
REMARK  4 active torsions:
REMARK  status: ('A' for Active; 'I' for Inactive)
REMARK       I    between atoms: C_2  and  N_3 
REMARK       I    between atoms: C_2  and  N_15 
REMARK    1  A    between atoms: N_3  and  C_4 
REMARK    2  A    between atoms: C_4  and  C_5 
REMARK    3  A    between atoms: C_8  and  C_9 
REMARK    4  A    between atoms: N_15  and  C_16 
ROOT
HETATM    1  O   UNL     1     -20.566 -10.810   1.211  1.00  0.00    -0.247 OA
HETATM    2  C   UNL     1     -21.595 -11.057   0.595  1.00  0.00     0.321 C 
HETATM    3  N   UNL     1     -22.373 -10.050   0.074  1.00  0.00    -0.339 N 
HETATM    4  N   UNL     1     -22.134 -12.314   0.365  1.00  0.00    -0.308 N 
HETATM    5  H   UNL     1     -23.158 -10.265  -0.519  1.00  0.00     0.164 HD
HETATM    6  H   UNL     1     -23.109 -12.320   0.116  1.00  0.00     0.170 HD
ENDROOT
BRANCH   3   7
HETATM    7  C   UNL     1     -22.003  -8.654   0.233  1.00  0.00     0.162 C 
BRANCH   7   8
HETATM    8  C   UNL     1     -21.787  -7.967  -1.096  1.00  0.00    -0.040 A 
HETATM    9  C   UNL     1     -22.237  -6.657  -1.308  1.00  0.00     0.009 A 
HETATM   10  C   UNL     1     -21.989  -6.003  -2.522  1.00  0.00     0.017 A 
HETATM   11  C   UNL     1     -21.283  -6.653  -3.543  1.00  0.00     0.047 A 
HETATM   12  C   UNL     1     -20.834  -7.968  -3.330  1.00  0.00     0.017 A 
HETATM   13  C   UNL     1     -21.082  -8.618  -2.117  1.00  0.00     0.009 A 
BRANCH  11  14
HETATM   14  C   UNL     1     -20.994  -5.960  -4.853  1.00  0.00     0.417 C 
HETATM   15  F   UNL     1     -22.099  -5.775  -5.629  1.00  0.00    -0.166 F 
HETATM   16  F   UNL     1     -20.448  -4.723  -4.683  1.00  0.00    -0.166 F 
HETATM   17  F   UNL     1     -20.109  -6.651  -5.624  1.00  0.00    -0.166 F 
ENDBRANCH  11  14
ENDBRANCH   7   8
ENDBRANCH   3   7
BRANCH   4  18
HETATM   18  C   UNL     1     -21.599 -13.543   0.866  1.00  0.00     0.047 C 
HETATM   19  C   UNL     1     -20.372 -14.028   0.388  1.00  0.00     0.030 C 
HETATM   20  C   UNL     1     -19.735 -15.109   0.996  1.00  0.00     0.003 C 
HETATM   21  C   UNL     1     -20.293 -15.682   2.128  1.00  0.00     0.014 C 
HETATM   22  C   UNL     1     -21.546 -15.260   2.590  1.00  0.00    -0.008 C 
HETATM   23  C   UNL     1     -22.118 -15.841   3.722  1.00  0.00     0.100 C 
HETATM   24  C   UNL     1     -22.269 -14.252   1.905  1.00  0.00     0.004 C 
HETATM   25  N   UNL     1     -23.381 -15.622   4.140  1.00  0.00    -0.374 N 
HETATM   26  C   UNL     1     -24.112 -14.773   3.396  1.00  0.00     0.088 C 
ATOM     27  HN  UNL     1     -23.760 -16.074   4.973  1.00  0.00     0.164 HD
HETATM   28  C   UNL     1     -23.606 -14.052   2.319  1.00  0.00     0.031 C 
ENDBRANCH   4  18
TORSDOF 4
ENDMDL
