MODEL 1
REMARK VINA RESULT:      -8.7      0.000      0.000
REMARK  15 active torsions:
REMARK  status: ('A' for Active; 'I' for Inactive)
REMARK    1  A    between atoms: O_2  and  C_3 
REMARK    2  A    between atoms: C_5  and  C_6 
REMARK    3  A    between atoms: C_6  and  C_7 
REMARK    4  A    between atoms: C_7  and  O_9 
REMARK    5  A    between atoms: O_9  and  C_10 
REMARK    6  A    between atoms: C_10  and  C_11 
REMARK    7  A    between atoms: C_18  and  O_19 
REMARK    8  A    between atoms: O_19  and  C_20 
REMARK    9  A    between atoms: C_23  and  O_24 
REMARK   10  A    between atoms: O_24  and  C_25 
REMARK   11  A    between atoms: C_25  and  C_27 
REMARK   12  A    between atoms: C_27  and  C_28 
REMARK   13  A    between atoms: C_36  and  O_37 
REMARK   14  A    between atoms: C_44  and  O_45 
REMARK   15  A    between atoms: C_49  and  O_50 
ROOT
HETATM    1  C   UNL     1     -20.949  -8.744  -3.134  1.00  0.00    -0.050 C 
HETATM    2  C   UNL     1     -19.903  -9.319  -2.235  1.00  0.00    -0.013 C 
HETATM    3  C   UNL     1     -19.628 -11.107  -1.622  1.00  0.00     0.052 C 
HETATM    4  C   UNL     1     -18.437 -11.537  -0.456  1.00  0.00     0.046 A 
HETATM    5  C   UNL     1     -16.966 -11.895  -0.665  1.00  0.00    -0.005 A 
HETATM    6  C   UNL     1     -16.415 -11.251  -1.906  1.00  0.00     0.018 C 
HETATM    7  C   UNL     1     -15.904 -11.925   0.426  1.00  0.00     0.018 C 
HETATM    8  C   UNL     1     -17.996 -13.041  -0.449  1.00  0.00     0.110 A 
HETATM    9  C   UNL     1     -18.702 -13.870  -1.465  1.00  0.00     0.174 C 
HETATM   10  C   UNL     1     -20.286 -13.723  -1.172  1.00  0.00     0.050 C 
HETATM   11  C   UNL     1     -20.806 -13.445   0.252  1.00  0.00     0.016 C 
HETATM   12  C   UNL     1     -20.704 -12.630  -2.116  1.00  0.00     0.086 C 
HETATM   13  C   UNL     1     -22.473 -12.309  -2.456  1.00  0.00     0.131 A 
HETATM   14  C   UNL     1     -23.087 -11.477  -1.417  1.00  0.00    -0.000 C 
HETATM   15  C   UNL     1     -22.263 -10.448  -1.457  1.00  0.00    -0.029 C 
HETATM   16  C   UNL     1     -22.007  -9.625  -0.213  1.00  0.00     0.051 C 
HETATM   17  C   UNL     1     -21.608 -10.866  -3.008  1.00  0.00     0.099 A 
HETATM   18  O   UNL     1     -20.530 -10.986  -3.634  1.00  0.00    -0.304 OA
HETATM   19  C   UNL     1     -22.671 -11.309  -3.777  1.00  0.00     0.134 A 
HETATM   20  C   UNL     1     -22.236  -9.671  -4.096  1.00  0.00     0.141 A 
ENDROOT
BRANCH   1  21
HETATM   21  C   UNL     1     -21.436  -7.354  -3.550  1.00  0.00     0.213 C 
BRANCH  21  22
HETATM   22  O   UNL     1     -20.551  -6.424  -4.127  1.00  0.00    -0.317 OA
BRANCH  22  23
HETATM   23  C   UNL     1     -20.716  -6.255  -5.468  1.00  0.00     0.263 C 
HETATM   24  O   UNL     1     -20.929  -7.173  -6.250  1.00  0.00    -0.265 OA
BRANCH  23  25
HETATM   25  C   UNL     1     -20.492  -4.828  -5.973  1.00  0.00     0.149 C 
BRANCH  25  26
HETATM   26  C   UNL     1     -20.897  -4.488  -7.389  1.00  0.00    -0.046 C 
HETATM   27  C   UNL     1     -22.235  -4.282  -7.718  1.00  0.00     0.047 C 
HETATM   28  C   UNL     1     -22.617  -3.738  -8.938  1.00  0.00     0.101 C 
HETATM   29  C   UNL     1     -21.663  -3.622  -9.946  1.00  0.00     0.099 C 
HETATM   30  C   UNL     1     -20.335  -3.980  -9.703  1.00  0.00     0.040 C 
HETATM   31  C   UNL     1     -19.945  -4.379  -8.419  1.00  0.00     0.010 C 
BRANCH  28  32
HETATM   32  O   UNL     1     -23.897  -3.304  -9.165  1.00  0.00    -0.353 OA
HETATM   33  C   UNL     1     -24.728  -4.266  -9.812  1.00  0.00     0.210 C 
ENDBRANCH  28  32
BRANCH  29  34
HETATM   34  O   UNL     1     -22.041  -3.142 -11.167  1.00  0.00    -0.358 OA
HETATM   35  H   UNL     1     -21.494  -3.554 -11.852  1.00  0.00     0.217 HD
ENDBRANCH  29  34
ENDBRANCH  25  26
ENDBRANCH  23  25
ENDBRANCH  22  23
ENDBRANCH  21  22
ENDBRANCH   1  21
BRANCH  19  36
HETATM   36  O   UNL     1     -22.360 -12.080  -4.924  1.00  0.00    -0.381 OA
HETATM   37  H   UNL     1     -21.673 -11.546  -5.394  1.00  0.00     0.211 HD
ENDBRANCH  19  36
BRANCH  12  38
HETATM   38  O   UNL     1     -20.447 -13.270  -3.436  1.00  0.00    -0.387 OA
HETATM   39  H   UNL     1     -20.821 -12.701  -4.132  1.00  0.00     0.210 HD
ENDBRANCH  12  38
BRANCH   8  40
HETATM   40  O   UNL     1     -18.006 -13.742   0.885  1.00  0.00    -0.306 OA
BRANCH  40  41
HETATM   41  C   UNL     1     -17.505 -15.033   0.957  1.00  0.00     0.255 C 
HETATM   42  C   UNL     1     -18.424 -16.021   1.633  1.00  0.00     0.126 C 
HETATM   43  O   UNL     1     -16.458 -15.415   0.447  1.00  0.00    -0.266 OA
ENDBRANCH  40  41
ENDBRANCH   8  40
BRANCH   9  44
HETATM   44  O   UNL     1     -18.286 -13.396  -2.773  1.00  0.00    -0.312 OA
BRANCH  44  45
HETATM   45  C   UNL     1     -17.404 -14.076  -3.528  1.00  0.00     0.263 C 
HETATM   46  O   UNL     1     -16.493 -14.783  -3.092  1.00  0.00    -0.265 OA
BRANCH  45  47
HETATM   47  C   UNL     1     -17.592 -13.734  -5.001  1.00  0.00     0.149 C 
BRANCH  47  48
HETATM   48  C   UNL     1     -17.004 -12.391  -5.309  1.00  0.00    -0.049 A 
HETATM   49  C   UNL     1     -15.614 -12.231  -5.332  1.00  0.00     0.007 A 
HETATM   50  C   UNL     1     -15.065 -10.958  -5.461  1.00  0.00     0.001 A 
HETATM   51  C   UNL     1     -15.903  -9.844  -5.573  1.00  0.00     0.000 A 
HETATM   52  C   UNL     1     -17.286 -10.005  -5.582  1.00  0.00     0.001 A 
HETATM   53  C   UNL     1     -17.839 -11.276  -5.456  1.00  0.00     0.007 A 
ENDBRANCH  47  48
ENDBRANCH  45  47
ENDBRANCH  44  45
ENDBRANCH   9  44
TORSDOF 15
ENDMDL
MODEL 2
REMARK VINA RESULT:      -8.3      2.616      5.580
REMARK  15 active torsions:
REMARK  status: ('A' for Active; 'I' for Inactive)
REMARK    1  A    between atoms: O_2  and  C_3 
REMARK    2  A    between atoms: C_5  and  C_6 
REMARK    3  A    between atoms: C_6  and  C_7 
REMARK    4  A    between atoms: C_7  and  O_9 
REMARK    5  A    between atoms: O_9  and  C_10 
REMARK    6  A    between atoms: C_10  and  C_11 
REMARK    7  A    between atoms: C_18  and  O_19 
REMARK    8  A    between atoms: O_19  and  C_20 
REMARK    9  A    between atoms: C_23  and  O_24 
REMARK   10  A    between atoms: O_24  and  C_25 
REMARK   11  A    between atoms: C_25  and  C_27 
REMARK   12  A    between atoms: C_27  and  C_28 
REMARK   13  A    between atoms: C_36  and  O_37 
REMARK   14  A    between atoms: C_44  and  O_45 
REMARK   15  A    between atoms: C_49  and  O_50 
ROOT
HETATM    1  C   UNL     1     -20.191 -11.169  -0.547  1.00  0.00    -0.050 C 
HETATM    2  C   UNL     1     -19.083 -10.717  -1.443  1.00  0.00    -0.013 C 
HETATM    3  C   UNL     1     -17.968 -11.699  -2.644  1.00  0.00     0.052 C 
HETATM    4  C   UNL     1     -16.635 -11.004  -3.482  1.00  0.00     0.046 A 
HETATM    5  C   UNL     1     -16.613 -10.271  -4.824  1.00  0.00    -0.005 A 
HETATM    6  C   UNL     1     -17.936  -9.622  -5.117  1.00  0.00     0.018 C 
HETATM    7  C   UNL     1     -15.475  -9.394  -5.329  1.00  0.00     0.018 C 
HETATM    8  C   UNL     1     -16.165 -11.760  -4.772  1.00  0.00     0.110 A 
HETATM    9  C   UNL     1     -16.959 -12.987  -5.059  1.00  0.00     0.174 C 
HETATM   10  C   UNL     1     -16.850 -13.934  -3.753  1.00  0.00     0.050 C 
HETATM   11  C   UNL     1     -15.610 -13.882  -2.838  1.00  0.00     0.016 C 
HETATM   12  C   UNL     1     -18.096 -13.593  -2.983  1.00  0.00     0.086 C 
HETATM   13  C   UNL     1     -18.656 -14.640  -1.591  1.00  0.00     0.131 A 
HETATM   14  C   UNL     1     -17.949 -14.319  -0.347  1.00  0.00    -0.000 C 
HETATM   15  C   UNL     1     -18.212 -13.029  -0.283  1.00  0.00    -0.029 C 
HETATM   16  C   UNL     1     -17.236 -12.083   0.382  1.00  0.00     0.051 C 
HETATM   17  C   UNL     1     -19.522 -13.105  -1.417  1.00  0.00     0.099 A 
HETATM   18  O   UNL     1     -19.998 -12.540  -2.427  1.00  0.00    -0.304 OA
HETATM   19  C   UNL     1     -20.218 -14.269  -1.136  1.00  0.00     0.134 A 
HETATM   20  C   UNL     1     -20.951 -12.858  -0.468  1.00  0.00     0.141 A 
ENDROOT
BRANCH   1  21
HETATM   21  C   UNL     1     -21.022 -10.585   0.598  1.00  0.00     0.213 C 
BRANCH  21  22
HETATM   22  O   UNL     1     -21.128  -9.193   0.773  1.00  0.00    -0.317 OA
BRANCH  22  23
HETATM   23  C   UNL     1     -22.173  -8.625   0.110  1.00  0.00     0.263 C 
HETATM   24  O   UNL     1     -23.307  -9.087   0.102  1.00  0.00    -0.265 OA
BRANCH  23  25
HETATM   25  C   UNL     1     -21.812  -7.411  -0.747  1.00  0.00     0.149 C 
BRANCH  25  26
HETATM   26  C   UNL     1     -21.769  -7.570  -2.249  1.00  0.00    -0.046 C 
HETATM   27  C   UNL     1     -21.928  -6.469  -3.088  1.00  0.00     0.047 C 
HETATM   28  C   UNL     1     -21.657  -6.535  -4.448  1.00  0.00     0.101 C 
HETATM   29  C   UNL     1     -21.457  -7.784  -5.029  1.00  0.00     0.099 C 
HETATM   30  C   UNL     1     -21.458  -8.936  -4.240  1.00  0.00     0.040 C 
HETATM   31  C   UNL     1     -21.578  -8.827  -2.849  1.00  0.00     0.010 C 
BRANCH  28  32
HETATM   32  O   UNL     1     -21.570  -5.407  -5.223  1.00  0.00    -0.353 OA
HETATM   33  C   UNL     1     -20.255  -4.859  -5.301  1.00  0.00     0.210 C 
ENDBRANCH  28  32
BRANCH  29  34
HETATM   34  O   UNL     1     -21.247  -7.865  -6.377  1.00  0.00    -0.358 OA
HETATM   35  H   UNL     1     -20.327  -7.628  -6.568  1.00  0.00     0.217 HD
ENDBRANCH  29  34
ENDBRANCH  25  26
ENDBRANCH  23  25
ENDBRANCH  22  23
ENDBRANCH  21  22
ENDBRANCH   1  21
BRANCH  19  36
HETATM   36  O   UNL     1     -21.069 -14.772  -2.150  1.00  0.00    -0.381 OA
HETATM   37  H   UNL     1     -20.743 -14.337  -2.976  1.00  0.00     0.211 HD
ENDBRANCH  19  36
BRANCH  12  38
HETATM   38  O   UNL     1     -19.155 -14.067  -3.918  1.00  0.00    -0.387 OA
HETATM   39  H   UNL     1     -19.348 -14.999  -3.715  1.00  0.00     0.210 HD
ENDBRANCH  12  38
BRANCH   8  40
HETATM   40  O   UNL     1     -14.693 -12.062  -4.881  1.00  0.00    -0.306 OA
BRANCH  40  41
HETATM   41  C   UNL     1     -14.203 -12.540  -6.086  1.00  0.00     0.255 C 
HETATM   42  C   UNL     1     -13.397 -13.811  -5.970  1.00  0.00     0.126 C 
HETATM   43  O   UNL     1     -14.456 -12.069  -7.189  1.00  0.00    -0.266 OA
ENDBRANCH  40  41
ENDBRANCH   8  40
BRANCH   9  44
HETATM   44  O   UNL     1     -18.309 -12.562  -5.383  1.00  0.00    -0.312 OA
BRANCH  44  45
HETATM   45  C   UNL     1     -18.757 -12.520  -6.651  1.00  0.00     0.263 C 
HETATM   46  O   UNL     1     -18.111 -12.863  -7.644  1.00  0.00    -0.265 OA
BRANCH  45  47
HETATM   47  C   UNL     1     -20.123 -11.849  -6.709  1.00  0.00     0.149 C 
BRANCH  47  48
HETATM   48  C   UNL     1     -21.206 -12.830  -6.376  1.00  0.00    -0.049 A 
HETATM   49  C   UNL     1     -22.043 -12.594  -5.280  1.00  0.00     0.007 A 
HETATM   50  C   UNL     1     -22.943 -13.574  -4.872  1.00  0.00     0.001 A 
HETATM   51  C   UNL     1     -23.014 -14.788  -5.561  1.00  0.00     0.000 A 
HETATM   52  C   UNL     1     -22.204 -15.012  -6.672  1.00  0.00     0.001 A 
HETATM   53  C   UNL     1     -21.304 -14.034  -7.085  1.00  0.00     0.007 A 
ENDBRANCH  47  48
ENDBRANCH  45  47
ENDBRANCH  44  45
ENDBRANCH   9  44
TORSDOF 15
ENDMDL
MODEL 3
REMARK VINA RESULT:      -8.2      2.575      5.559
REMARK  15 active torsions:
REMARK  status: ('A' for Active; 'I' for Inactive)
REMARK    1  A    between atoms: O_2  and  C_3 
REMARK    2  A    between atoms: C_5  and  C_6 
REMARK    3  A    between atoms: C_6  and  C_7 
REMARK    4  A    between atoms: C_7  and  O_9 
REMARK    5  A    between atoms: O_9  and  C_10 
REMARK    6  A    between atoms: C_10  and  C_11 
REMARK    7  A    between atoms: C_18  and  O_19 
REMARK    8  A    between atoms: O_19  and  C_20 
REMARK    9  A    between atoms: C_23  and  O_24 
REMARK   10  A    between atoms: O_24  and  C_25 
REMARK   11  A    between atoms: C_25  and  C_27 
REMARK   12  A    between atoms: C_27  and  C_28 
REMARK   13  A    between atoms: C_36  and  O_37 
REMARK   14  A    between atoms: C_44  and  O_45 
REMARK   15  A    between atoms: C_49  and  O_50 
ROOT
HETATM    1  C   UNL     1     -21.122  -8.182  -5.215  1.00  0.00    -0.050 C 
HETATM    2  C   UNL     1     -21.102  -9.657  -5.455  1.00  0.00    -0.013 C 
HETATM    3  C   UNL     1     -20.768 -11.112  -4.263  1.00  0.00     0.052 C 
HETATM    4  C   UNL     1     -20.644 -12.750  -4.778  1.00  0.00     0.046 A 
HETATM    5  C   UNL     1     -21.749 -13.789  -4.968  1.00  0.00    -0.005 A 
HETATM    6  C   UNL     1     -23.067 -13.139  -5.280  1.00  0.00     0.018 C 
HETATM    7  C   UNL     1     -21.610 -15.091  -5.745  1.00  0.00     0.018 C 
HETATM    8  C   UNL     1     -20.885 -13.836  -3.674  1.00  0.00     0.110 A 
HETATM    9  C   UNL     1     -21.176 -13.260  -2.332  1.00  0.00     0.174 C 
HETATM   10  C   UNL     1     -19.929 -12.305  -1.950  1.00  0.00     0.050 C 
HETATM   11  C   UNL     1     -18.516 -12.589  -2.498  1.00  0.00     0.016 C 
HETATM   12  C   UNL     1     -20.403 -10.943  -2.377  1.00  0.00     0.086 C 
HETATM   13  C   UNL     1     -19.521  -9.432  -1.843  1.00  0.00     0.131 A 
HETATM   14  C   UNL     1     -18.355  -9.154  -2.687  1.00  0.00    -0.000 C 
HETATM   15  C   UNL     1     -18.948  -9.128  -3.864  1.00  0.00    -0.029 C 
HETATM   16  C   UNL     1     -18.191  -9.535  -5.110  1.00  0.00     0.051 C 
HETATM   17  C   UNL     1     -20.541  -8.938  -3.204  1.00  0.00     0.099 A 
HETATM   18  O   UNL     1     -21.714  -9.368  -3.293  1.00  0.00    -0.304 OA
HETATM   19  C   UNL     1     -20.423  -8.060  -2.140  1.00  0.00     0.134 A 
HETATM   20  C   UNL     1     -20.992  -7.308  -3.585  1.00  0.00     0.141 A 
ENDROOT
BRANCH   1  21
HETATM   21  C   UNL     1     -21.158  -6.905  -6.058  1.00  0.00     0.213 C 
BRANCH  21  22
HETATM   22  O   UNL     1     -20.180  -6.661  -7.039  1.00  0.00    -0.317 OA
BRANCH  22  23
HETATM   23  C   UNL     1     -19.980  -5.342  -7.313  1.00  0.00     0.263 C 
HETATM   24  O   UNL     1     -19.599  -4.524  -6.486  1.00  0.00    -0.265 OA
BRANCH  23  25
HETATM   25  C   UNL     1     -20.387  -4.905  -8.721  1.00  0.00     0.149 C 
BRANCH  25  26
HETATM   26  C   UNL     1     -21.773  -4.340  -8.934  1.00  0.00    -0.046 C 
HETATM   27  C   UNL     1     -22.094  -3.664 -10.109  1.00  0.00     0.047 C 
HETATM   28  C   UNL     1     -23.405  -3.346 -10.440  1.00  0.00     0.101 C 
HETATM   29  C   UNL     1     -24.392  -3.489  -9.468  1.00  0.00     0.099 C 
HETATM   30  C   UNL     1     -24.074  -4.011  -8.212  1.00  0.00     0.040 C 
HETATM   31  C   UNL     1     -22.776  -4.468  -7.957  1.00  0.00     0.010 C 
BRANCH  28  32
HETATM   32  O   UNL     1     -23.748  -2.912 -11.694  1.00  0.00    -0.353 OA
HETATM   33  C   UNL     1     -22.706  -2.210 -12.369  1.00  0.00     0.210 C 
ENDBRANCH  28  32
BRANCH  29  34
HETATM   34  O   UNL     1     -25.675  -3.126  -9.766  1.00  0.00    -0.358 OA
HETATM   35  H   UNL     1     -25.867  -3.368 -10.684  1.00  0.00     0.217 HD
ENDBRANCH  29  34
ENDBRANCH  25  26
ENDBRANCH  23  25
ENDBRANCH  22  23
ENDBRANCH  21  22
ENDBRANCH   1  21
BRANCH  19  36
HETATM   36  O   UNL     1     -21.475  -8.049  -1.192  1.00  0.00    -0.381 OA
HETATM   37  H   UNL     1     -21.637  -9.006  -1.002  1.00  0.00     0.211 HD
ENDBRANCH  19  36
BRANCH  12  38
HETATM   38  O   UNL     1     -21.556 -10.735  -1.457  1.00  0.00    -0.387 OA
HETATM   39  H   UNL     1     -21.549  -9.808  -1.160  1.00  0.00     0.210 HD
ENDBRANCH  12  38
BRANCH   8  40
HETATM   40  O   UNL     1     -19.847 -14.922  -3.555  1.00  0.00    -0.306 OA
BRANCH  40  41
HETATM   41  C   UNL     1     -19.979 -15.855  -2.539  1.00  0.00     0.255 C 
HETATM   42  C   UNL     1     -20.976 -16.951  -2.827  1.00  0.00     0.126 C 
HETATM   43  O   UNL     1     -19.300 -15.891  -1.519  1.00  0.00    -0.266 OA
ENDBRANCH  40  41
ENDBRANCH   8  40
BRANCH   9  44
HETATM   44  O   UNL     1     -22.453 -12.575  -2.424  1.00  0.00    -0.312 OA
BRANCH  44  45
HETATM   45  C   UNL     1     -23.463 -12.836  -1.573  1.00  0.00     0.263 C 
HETATM   46  O   UNL     1     -24.396 -12.070  -1.322  1.00  0.00    -0.265 OA
BRANCH  45  47
HETATM   47  C   UNL     1     -23.218 -14.153  -0.847  1.00  0.00     0.149 C 
BRANCH  47  48
HETATM   48  C   UNL     1     -24.120 -15.224  -1.380  1.00  0.00    -0.049 A 
HETATM   49  C   UNL     1     -24.158 -15.477  -2.756  1.00  0.00     0.007 A 
HETATM   50  C   UNL     1     -25.105 -16.357  -3.272  1.00  0.00     0.001 A 
HETATM   51  C   UNL     1     -26.011 -16.991  -2.415  1.00  0.00     0.000 A 
HETATM   52  C   UNL     1     -25.954 -16.763  -1.043  1.00  0.00     0.001 A 
HETATM   53  C   UNL     1     -25.007 -15.886  -0.521  1.00  0.00     0.007 A 
ENDBRANCH  47  48
ENDBRANCH  45  47
ENDBRANCH  44  45
ENDBRANCH   9  44
TORSDOF 15
ENDMDL
MODEL 4
REMARK VINA RESULT:      -8.1      3.812      7.862
REMARK  15 active torsions:
REMARK  status: ('A' for Active; 'I' for Inactive)
REMARK    1  A    between atoms: O_2  and  C_3 
REMARK    2  A    between atoms: C_5  and  C_6 
REMARK    3  A    between atoms: C_6  and  C_7 
REMARK    4  A    between atoms: C_7  and  O_9 
REMARK    5  A    between atoms: O_9  and  C_10 
REMARK    6  A    between atoms: C_10  and  C_11 
REMARK    7  A    between atoms: C_18  and  O_19 
REMARK    8  A    between atoms: O_19  and  C_20 
REMARK    9  A    between atoms: C_23  and  O_24 
REMARK   10  A    between atoms: O_24  and  C_25 
REMARK   11  A    between atoms: C_25  and  C_27 
REMARK   12  A    between atoms: C_27  and  C_28 
REMARK   13  A    between atoms: C_36  and  O_37 
REMARK   14  A    between atoms: C_44  and  O_45 
REMARK   15  A    between atoms: C_49  and  O_50 
ROOT
HETATM    1  C   UNL     1     -19.168 -11.675  -5.170  1.00  0.00    -0.050 C 
HETATM    2  C   UNL     1     -20.311 -12.230  -4.383  1.00  0.00    -0.013 C 
HETATM    3  C   UNL     1     -20.451 -12.677  -2.531  1.00  0.00     0.052 C 
HETATM    4  C   UNL     1     -21.826 -13.453  -1.845  1.00  0.00     0.046 A 
HETATM    5  C   UNL     1     -23.112 -12.834  -1.298  1.00  0.00    -0.005 A 
HETATM    6  C   UNL     1     -23.408 -11.514  -1.952  1.00  0.00     0.018 C 
HETATM    7  C   UNL     1     -24.408 -13.588  -1.030  1.00  0.00     0.018 C 
HETATM    8  C   UNL     1     -22.008 -13.283  -0.298  1.00  0.00     0.110 A 
HETATM    9  C   UNL     1     -20.934 -12.471   0.339  1.00  0.00     0.174 C 
HETATM   10  C   UNL     1     -19.530 -13.194  -0.008  1.00  0.00     0.050 C 
HETATM   11  C   UNL     1     -19.460 -14.716  -0.245  1.00  0.00     0.016 C 
HETATM   12  C   UNL     1     -19.055 -12.443  -1.222  1.00  0.00     0.086 C 
HETATM   13  C   UNL     1     -17.333 -12.615  -1.818  1.00  0.00     0.131 A 
HETATM   14  C   UNL     1     -17.159 -13.813  -2.644  1.00  0.00    -0.000 C 
HETATM   15  C   UNL     1     -18.095 -13.585  -3.545  1.00  0.00    -0.029 C 
HETATM   16  C   UNL     1     -18.801 -14.740  -4.222  1.00  0.00     0.051 C 
HETATM   17  C   UNL     1     -18.238 -11.899  -3.161  1.00  0.00     0.099 A 
HETATM   18  O   UNL     1     -19.077 -10.997  -2.938  1.00  0.00    -0.304 OA
HETATM   19  C   UNL     1     -16.953 -11.437  -2.936  1.00  0.00     0.134 A 
HETATM   20  C   UNL     1     -17.542 -11.071  -4.515  1.00  0.00     0.141 A 
ENDROOT
BRANCH   1  21
HETATM   21  C   UNL     1     -18.816 -11.460  -6.644  1.00  0.00     0.213 C 
BRANCH  21  22
HETATM   22  O   UNL     1     -19.557 -12.091  -7.661  1.00  0.00    -0.317 OA
BRANCH  22  23
HETATM   23  C   UNL     1     -19.288 -13.418  -7.806  1.00  0.00     0.263 C 
HETATM   24  O   UNL     1     -20.052 -14.310  -7.461  1.00  0.00    -0.265 OA
BRANCH  23  25
HETATM   25  C   UNL     1     -17.887 -13.740  -8.329  1.00  0.00     0.149 C 
BRANCH  25  26
HETATM   26  C   UNL     1     -16.891 -14.380  -7.389  1.00  0.00    -0.046 C 
HETATM   27  C   UNL     1     -15.951 -13.607  -6.712  1.00  0.00     0.047 C 
HETATM   28  C   UNL     1     -15.188 -14.119  -5.671  1.00  0.00     0.101 C 
HETATM   29  C   UNL     1     -15.188 -15.496  -5.458  1.00  0.00     0.099 C 
HETATM   30  C   UNL     1     -15.997 -16.328  -6.234  1.00  0.00     0.040 C 
HETATM   31  C   UNL     1     -16.873 -15.770  -7.173  1.00  0.00     0.010 C 
BRANCH  28  32
HETATM   32  O   UNL     1     -14.453 -13.308  -4.846  1.00  0.00    -0.353 OA
HETATM   33  C   UNL     1     -14.037 -12.087  -5.456  1.00  0.00     0.210 C 
ENDBRANCH  28  32
BRANCH  29  34
HETATM   34  O   UNL     1     -14.397 -16.016  -4.473  1.00  0.00    -0.358 OA
HETATM   35  H   UNL     1     -14.713 -16.904  -4.251  1.00  0.00     0.217 HD
ENDBRANCH  29  34
ENDBRANCH  25  26
ENDBRANCH  23  25
ENDBRANCH  22  23
ENDBRANCH  21  22
ENDBRANCH   1  21
BRANCH  19  36
HETATM   36  O   UNL     1     -16.820 -10.222  -2.221  1.00  0.00    -0.381 OA
HETATM   37  H   UNL     1     -17.039  -9.525  -2.888  1.00  0.00     0.211 HD
ENDBRANCH  19  36
BRANCH  12  38
HETATM   38  O   UNL     1     -18.846 -11.080  -0.657  1.00  0.00    -0.387 OA
HETATM   39  H   UNL     1     -19.025 -11.114   0.299  1.00  0.00     0.210 HD
ENDBRANCH  12  38
BRANCH   8  40
HETATM   40  O   UNL     1     -22.243 -14.542   0.498  1.00  0.00    -0.306 OA
BRANCH  40  41
HETATM   41  C   UNL     1     -22.573 -14.424   1.839  1.00  0.00     0.255 C 
HETATM   42  C   UNL     1     -21.668 -15.190   2.773  1.00  0.00     0.126 C 
HETATM   43  O   UNL     1     -23.451 -13.698   2.290  1.00  0.00    -0.266 OA
ENDBRANCH  40  41
ENDBRANCH   8  40
BRANCH   9  44
HETATM   44  O   UNL     1     -21.057 -11.118  -0.171  1.00  0.00    -0.312 OA
BRANCH  44  45
HETATM   45  C   UNL     1     -21.175 -10.056   0.648  1.00  0.00     0.263 C 
HETATM   46  O   UNL     1     -20.510  -9.870   1.668  1.00  0.00    -0.265 OA
BRANCH  45  47
HETATM   47  C   UNL     1     -22.350  -9.186   0.221  1.00  0.00     0.149 C 
BRANCH  47  48
HETATM   48  C   UNL     1     -21.930  -8.222  -0.847  1.00  0.00    -0.049 A 
HETATM   49  C   UNL     1     -22.399  -6.904  -0.817  1.00  0.00     0.007 A 
HETATM   50  C   UNL     1     -22.142  -6.052  -1.887  1.00  0.00     0.001 A 
HETATM   51  C   UNL     1     -21.411  -6.512  -2.987  1.00  0.00     0.000 A 
HETATM   52  C   UNL     1     -20.918  -7.814  -3.005  1.00  0.00     0.001 A 
HETATM   53  C   UNL     1     -21.170  -8.669  -1.936  1.00  0.00     0.007 A 
ENDBRANCH  47  48
ENDBRANCH  45  47
ENDBRANCH  44  45
ENDBRANCH   9  44
TORSDOF 15
ENDMDL
MODEL 5
REMARK VINA RESULT:      -8.1      3.774      9.172
REMARK  15 active torsions:
REMARK  status: ('A' for Active; 'I' for Inactive)
REMARK    1  A    between atoms: O_2  and  C_3 
REMARK    2  A    between atoms: C_5  and  C_6 
REMARK    3  A    between atoms: C_6  and  C_7 
REMARK    4  A    between atoms: C_7  and  O_9 
REMARK    5  A    between atoms: O_9  and  C_10 
REMARK    6  A    between atoms: C_10  and  C_11 
REMARK    7  A    between atoms: C_18  and  O_19 
REMARK    8  A    between atoms: O_19  and  C_20 
REMARK    9  A    between atoms: C_23  and  O_24 
REMARK   10  A    between atoms: O_24  and  C_25 
REMARK   11  A    between atoms: C_25  and  C_27 
REMARK   12  A    between atoms: C_27  and  C_28 
REMARK   13  A    between atoms: C_36  and  O_37 
REMARK   14  A    between atoms: C_44  and  O_45 
REMARK   15  A    between atoms: C_49  and  O_50 
ROOT
HETATM    1  C   UNL     1     -16.558 -13.008  -4.606  1.00  0.00    -0.050 C 
HETATM    2  C   UNL     1     -17.162 -12.478  -3.345  1.00  0.00    -0.013 C 
HETATM    3  C   UNL     1     -18.634 -11.292  -3.069  1.00  0.00     0.052 C 
HETATM    4  C   UNL     1     -19.081 -10.681  -1.522  1.00  0.00     0.046 A 
HETATM    5  C   UNL     1     -20.002 -11.297  -0.470  1.00  0.00    -0.005 A 
HETATM    6  C   UNL     1     -20.034 -12.795  -0.577  1.00  0.00     0.018 C 
HETATM    7  C   UNL     1     -20.076 -10.875   0.991  1.00  0.00     0.018 C 
HETATM    8  C   UNL     1     -20.556 -10.169  -1.388  1.00  0.00     0.110 A 
HETATM    9  C   UNL     1     -21.341 -10.288  -2.648  1.00  0.00     0.174 C 
HETATM   10  C   UNL     1     -20.536  -9.462  -3.782  1.00  0.00     0.050 C 
HETATM   11  C   UNL     1     -19.651  -8.256  -3.406  1.00  0.00     0.016 C 
HETATM   12  C   UNL     1     -19.724 -10.528  -4.464  1.00  0.00     0.086 C 
HETATM   13  C   UNL     1     -18.898 -10.199  -6.063  1.00  0.00     0.131 A 
HETATM   14  C   UNL     1     -17.616  -9.510  -5.885  1.00  0.00    -0.000 C 
HETATM   15  C   UNL     1     -17.033 -10.360  -5.063  1.00  0.00    -0.029 C 
HETATM   16  C   UNL     1     -16.016  -9.872  -4.055  1.00  0.00     0.051 C 
HETATM   17  C   UNL     1     -18.130 -11.657  -5.416  1.00  0.00     0.099 A 
HETATM   18  O   UNL     1     -18.830 -12.544  -4.877  1.00  0.00    -0.304 OA
HETATM   19  C   UNL     1     -18.368 -11.610  -6.779  1.00  0.00     0.134 A 
HETATM   20  C   UNL     1     -17.197 -12.795  -6.333  1.00  0.00     0.141 A 
ENDROOT
BRANCH   1  21
HETATM   21  C   UNL     1     -15.294 -13.768  -5.014  1.00  0.00     0.213 C 
BRANCH  21  22
HETATM   22  O   UNL     1     -15.081 -15.093  -4.590  1.00  0.00    -0.317 OA
BRANCH  22  23
HETATM   23  C   UNL     1     -14.100 -15.228  -3.655  1.00  0.00     0.263 C 
HETATM   24  O   UNL     1     -12.909 -15.067  -3.888  1.00  0.00    -0.265 OA
BRANCH  23  25
HETATM   25  C   UNL     1     -14.574 -15.726  -2.288  1.00  0.00     0.149 C 
BRANCH  25  26
HETATM   26  C   UNL     1     -15.218 -14.740  -1.341  1.00  0.00    -0.046 C 
HETATM   27  C   UNL     1     -16.352 -15.090  -0.610  1.00  0.00     0.047 C 
HETATM   28  C   UNL     1     -16.824 -14.307   0.436  1.00  0.00     0.101 C 
HETATM   29  C   UNL     1     -16.300 -13.028   0.601  1.00  0.00     0.099 C 
HETATM   30  C   UNL     1     -15.270 -12.576  -0.227  1.00  0.00     0.040 C 
HETATM   31  C   UNL     1     -14.706 -13.441  -1.172  1.00  0.00     0.010 C 
BRANCH  28  32
HETATM   32  O   UNL     1     -17.775 -14.767   1.309  1.00  0.00    -0.353 OA
HETATM   33  C   UNL     1     -17.296 -15.754   2.221  1.00  0.00     0.210 C 
ENDBRANCH  28  32
BRANCH  29  34
HETATM   34  O   UNL     1     -16.798 -12.229   1.591  1.00  0.00    -0.358 OA
HETATM   35  H   UNL     1     -17.764 -12.206   1.523  1.00  0.00     0.217 HD
ENDBRANCH  29  34
ENDBRANCH  25  26
ENDBRANCH  23  25
ENDBRANCH  22  23
ENDBRANCH  21  22
ENDBRANCH   1  21
BRANCH  19  36
HETATM   36  O   UNL     1     -19.519 -12.283  -7.257  1.00  0.00    -0.381 OA
HETATM   37  H   UNL     1     -19.259 -13.237  -7.252  1.00  0.00     0.211 HD
ENDBRANCH  19  36
BRANCH  12  38
HETATM   38  O   UNL     1     -20.795 -11.374  -5.059  1.00  0.00    -0.387 OA
HETATM   39  H   UNL     1     -20.604 -11.491  -6.006  1.00  0.00     0.210 HD
ENDBRANCH  12  38
BRANCH   8  40
HETATM   40  O   UNL     1     -20.745  -8.798  -0.790  1.00  0.00    -0.306 OA
BRANCH  40  41
HETATM   41  C   UNL     1     -22.036  -8.346  -0.569  1.00  0.00     0.255 C 
HETATM   42  C   UNL     1     -22.336  -6.998  -1.179  1.00  0.00     0.126 C 
HETATM   43  O   UNL     1     -22.925  -8.985  -0.019  1.00  0.00    -0.266 OA
ENDBRANCH  40  41
ENDBRANCH   8  40
BRANCH   9  44
HETATM   44  O   UNL     1     -21.493 -11.704  -2.930  1.00  0.00    -0.312 OA
BRANCH  44  45
HETATM   45  C   UNL     1     -22.704 -12.281  -3.041  1.00  0.00     0.263 C 
HETATM   46  O   UNL     1     -23.051 -13.033  -3.953  1.00  0.00    -0.265 OA
BRANCH  45  47
HETATM   47  C   UNL     1     -23.640 -11.759  -1.958  1.00  0.00     0.149 C 
BRANCH  47  48
HETATM   48  C   UNL     1     -23.742 -12.742  -0.832  1.00  0.00    -0.049 A 
HETATM   49  C   UNL     1     -23.419 -12.342   0.470  1.00  0.00     0.007 A 
HETATM   50  C   UNL     1     -23.359 -13.287   1.490  1.00  0.00     0.001 A 
HETATM   51  C   UNL     1     -23.626 -14.632   1.215  1.00  0.00     0.000 A 
HETATM   52  C   UNL     1     -23.978 -15.026  -0.074  1.00  0.00     0.001 A 
HETATM   53  C   UNL     1     -24.042 -14.085  -1.097  1.00  0.00     0.007 A 
ENDBRANCH  47  48
ENDBRANCH  45  47
ENDBRANCH  44  45
ENDBRANCH   9  44
TORSDOF 15
ENDMDL
MODEL 6
REMARK VINA RESULT:      -8.0      3.448      7.125
REMARK  15 active torsions:
REMARK  status: ('A' for Active; 'I' for Inactive)
REMARK    1  A    between atoms: O_2  and  C_3 
REMARK    2  A    between atoms: C_5  and  C_6 
REMARK    3  A    between atoms: C_6  and  C_7 
REMARK    4  A    between atoms: C_7  and  O_9 
REMARK    5  A    between atoms: O_9  and  C_10 
REMARK    6  A    between atoms: C_10  and  C_11 
REMARK    7  A    between atoms: C_18  and  O_19 
REMARK    8  A    between atoms: O_19  and  C_20 
REMARK    9  A    between atoms: C_23  and  O_24 
REMARK   10  A    between atoms: O_24  and  C_25 
REMARK   11  A    between atoms: C_25  and  C_27 
REMARK   12  A    between atoms: C_27  and  C_28 
REMARK   13  A    between atoms: C_36  and  O_37 
REMARK   14  A    between atoms: C_44  and  O_45 
REMARK   15  A    between atoms: C_49  and  O_50 
ROOT
HETATM    1  C   UNL     1     -15.976 -12.735  -2.575  1.00  0.00    -0.050 C 
HETATM    2  C   UNL     1     -17.366 -13.064  -3.017  1.00  0.00    -0.013 C 
HETATM    3  C   UNL     1     -18.941 -13.445  -2.006  1.00  0.00     0.052 C 
HETATM    4  C   UNL     1     -20.425 -13.953  -2.716  1.00  0.00     0.046 A 
HETATM    5  C   UNL     1     -21.569 -13.105  -3.273  1.00  0.00    -0.005 A 
HETATM    6  C   UNL     1     -21.080 -11.766  -3.748  1.00  0.00     0.018 C 
HETATM    7  C   UNL     1     -22.676 -13.613  -4.186  1.00  0.00     0.018 C 
HETATM    8  C   UNL     1     -21.712 -13.725  -1.853  1.00  0.00     0.110 A 
HETATM    9  C   UNL     1     -21.434 -13.104  -0.528  1.00  0.00     0.174 C 
HETATM   10  C   UNL     1     -20.383 -14.070   0.232  1.00  0.00     0.050 C 
HETATM   11  C   UNL     1     -20.349 -15.585  -0.055  1.00  0.00     0.016 C 
HETATM   12  C   UNL     1     -19.055 -13.438  -0.081  1.00  0.00     0.086 C 
HETATM   13  C   UNL     1     -17.546 -13.924   0.833  1.00  0.00     0.131 A 
HETATM   14  C   UNL     1     -16.950 -15.149   0.291  1.00  0.00    -0.000 C 
HETATM   15  C   UNL     1     -16.807 -14.775  -0.965  1.00  0.00    -0.029 C 
HETATM   16  C   UNL     1     -16.869 -15.799  -2.078  1.00  0.00     0.051 C 
HETATM   17  C   UNL     1     -16.980 -13.084  -0.619  1.00  0.00     0.099 A 
HETATM   18  O   UNL     1     -17.559 -12.043  -1.004  1.00  0.00    -0.304 OA
HETATM   19  C   UNL     1     -16.296 -12.853   0.562  1.00  0.00     0.134 A 
HETATM   20  C   UNL     1     -15.395 -12.418  -0.844  1.00  0.00     0.141 A 
ENDROOT
BRANCH   1  21
HETATM   21  C   UNL     1     -14.591 -12.614  -3.215  1.00  0.00     0.213 C 
BRANCH  21  22
HETATM   22  O   UNL     1     -14.179 -13.513  -4.216  1.00  0.00    -0.317 OA
BRANCH  22  23
HETATM   23  C   UNL     1     -13.996 -12.941  -5.438  1.00  0.00     0.263 C 
HETATM   24  O   UNL     1     -12.994 -12.312  -5.754  1.00  0.00    -0.265 OA
BRANCH  23  25
HETATM   25  C   UNL     1     -15.198 -13.028  -6.380  1.00  0.00     0.149 C 
BRANCH  25  26
HETATM   26  C   UNL     1     -16.243 -11.937  -6.325  1.00  0.00    -0.046 C 
HETATM   27  C   UNL     1     -17.520 -12.146  -6.842  1.00  0.00     0.047 C 
HETATM   28  C   UNL     1     -18.566 -11.267  -6.597  1.00  0.00     0.101 C 
HETATM   29  C   UNL     1     -18.279 -10.029  -6.028  1.00  0.00     0.099 C 
HETATM   30  C   UNL     1     -16.972  -9.715  -5.648  1.00  0.00     0.040 C 
HETATM   31  C   UNL     1     -15.963 -10.679  -5.763  1.00  0.00     0.010 C 
BRANCH  28  32
HETATM   32  O   UNL     1     -19.866 -11.592  -6.888  1.00  0.00    -0.353 OA
HETATM   33  C   UNL     1     -20.038 -12.930  -7.352  1.00  0.00     0.210 C 
ENDBRANCH  28  32
BRANCH  29  34
HETATM   34  O   UNL     1     -19.293  -9.134  -5.835  1.00  0.00    -0.358 OA
HETATM   35  H   UNL     1     -19.466  -8.668  -6.667  1.00  0.00     0.217 HD
ENDBRANCH  29  34
ENDBRANCH  25  26
ENDBRANCH  23  25
ENDBRANCH  22  23
ENDBRANCH  21  22
ENDBRANCH   1  21
BRANCH  19  36
HETATM   36  O   UNL     1     -16.612 -11.668   1.269  1.00  0.00    -0.381 OA
HETATM   37  H   UNL     1     -17.018 -11.080   0.585  1.00  0.00     0.211 HD
ENDBRANCH  19  36
BRANCH  12  38
HETATM   38  O   UNL     1     -19.189 -12.124   0.608  1.00  0.00    -0.387 OA
HETATM   39  H   UNL     1     -18.809 -12.205   1.500  1.00  0.00     0.210 HD
ENDBRANCH  12  38
BRANCH   8  40
HETATM   40  O   UNL     1     -22.632 -14.906  -1.685  1.00  0.00    -0.306 OA
BRANCH  40  41
HETATM   41  C   UNL     1     -23.826 -14.724  -1.006  1.00  0.00     0.255 C 
HETATM   42  C   UNL     1     -24.043 -15.681   0.142  1.00  0.00     0.126 C 
HETATM   43  O   UNL     1     -24.626 -13.818  -1.211  1.00  0.00    -0.266 OA
ENDBRANCH  40  41
ENDBRANCH   8  40
BRANCH   9  44
HETATM   44  O   UNL     1     -20.944 -11.760  -0.775  1.00  0.00    -0.312 OA
BRANCH  44  45
HETATM   45  C   UNL     1     -21.729 -10.678  -0.623  1.00  0.00     0.263 C 
HETATM   46  O   UNL     1     -22.929 -10.627  -0.899  1.00  0.00    -0.265 OA
BRANCH  45  47
HETATM   47  C   UNL     1     -20.896  -9.474  -0.200  1.00  0.00     0.149 C 
BRANCH  47  48
HETATM   48  C   UNL     1     -21.126  -8.322  -1.130  1.00  0.00    -0.049 A 
HETATM   49  C   UNL     1     -21.983  -7.283  -0.750  1.00  0.00     0.007 A 
HETATM   50  C   UNL     1     -22.322  -6.294  -1.668  1.00  0.00     0.001 A 
HETATM   51  C   UNL     1     -21.802  -6.336  -2.966  1.00  0.00     0.000 A 
HETATM   52  C   UNL     1     -20.925  -7.352  -3.336  1.00  0.00     0.001 A 
HETATM   53  C   UNL     1     -20.580  -8.342  -2.420  1.00  0.00     0.007 A 
ENDBRANCH  47  48
ENDBRANCH  45  47
ENDBRANCH  44  45
ENDBRANCH   9  44
TORSDOF 15
ENDMDL
MODEL 7
REMARK VINA RESULT:      -8.0      3.874      8.990
REMARK  15 active torsions:
REMARK  status: ('A' for Active; 'I' for Inactive)
REMARK    1  A    between atoms: O_2  and  C_3 
REMARK    2  A    between atoms: C_5  and  C_6 
REMARK    3  A    between atoms: C_6  and  C_7 
REMARK    4  A    between atoms: C_7  and  O_9 
REMARK    5  A    between atoms: O_9  and  C_10 
REMARK    6  A    between atoms: C_10  and  C_11 
REMARK    7  A    between atoms: C_18  and  O_19 
REMARK    8  A    between atoms: O_19  and  C_20 
REMARK    9  A    between atoms: C_23  and  O_24 
REMARK   10  A    between atoms: O_24  and  C_25 
REMARK   11  A    between atoms: C_25  and  C_27 
REMARK   12  A    between atoms: C_27  and  C_28 
REMARK   13  A    between atoms: C_36  and  O_37 
REMARK   14  A    between atoms: C_44  and  O_45 
REMARK   15  A    between atoms: C_49  and  O_50 
ROOT
HETATM    1  C   UNL     1     -18.602 -13.989  -3.901  1.00  0.00    -0.050 C 
HETATM    2  C   UNL     1     -18.766 -13.033  -2.764  1.00  0.00    -0.013 C 
HETATM    3  C   UNL     1     -19.995 -11.593  -2.512  1.00  0.00     0.052 C 
HETATM    4  C   UNL     1     -19.920 -10.505  -1.180  1.00  0.00     0.046 A 
HETATM    5  C   UNL     1     -20.537 -10.639   0.213  1.00  0.00    -0.005 A 
HETATM    6  C   UNL     1     -20.716 -12.080   0.598  1.00  0.00     0.018 C 
HETATM    7  C   UNL     1     -20.146  -9.814   1.432  1.00  0.00     0.018 C 
HETATM    8  C   UNL     1     -21.246  -9.741  -0.842  1.00  0.00     0.110 A 
HETATM    9  C   UNL     1     -22.374 -10.081  -1.755  1.00  0.00     0.174 C 
HETATM   10  C   UNL     1     -21.876  -9.752  -3.258  1.00  0.00     0.050 C 
HETATM   11  C   UNL     1     -20.829  -8.652  -3.524  1.00  0.00     0.016 C 
HETATM   12  C   UNL     1     -21.384 -11.086  -3.750  1.00  0.00     0.086 C 
HETATM   13  C   UNL     1     -21.041 -11.363  -5.526  1.00  0.00     0.131 A 
HETATM   14  C   UNL     1     -19.714 -10.872  -5.909  1.00  0.00    -0.000 C 
HETATM   15  C   UNL     1     -18.984 -11.538  -5.037  1.00  0.00    -0.029 C 
HETATM   16  C   UNL     1     -17.681 -10.959  -4.532  1.00  0.00     0.051 C 
HETATM   17  C   UNL     1     -20.233 -12.684  -4.668  1.00  0.00     0.099 A 
HETATM   18  O   UNL     1     -20.810 -13.255  -3.715  1.00  0.00    -0.304 OA
HETATM   19  C   UNL     1     -20.856 -12.986  -5.867  1.00  0.00     0.134 A 
HETATM   20  C   UNL     1     -19.701 -14.172  -5.383  1.00  0.00     0.141 A 
ENDROOT
BRANCH   1  21
HETATM   21  C   UNL     1     -17.577 -15.031  -4.356  1.00  0.00     0.213 C 
BRANCH  21  22
HETATM   22  O   UNL     1     -16.271 -15.034  -3.830  1.00  0.00    -0.317 OA
BRANCH  22  23
HETATM   23  C   UNL     1     -15.424 -14.155  -4.434  1.00  0.00     0.263 C 
HETATM   24  O   UNL     1     -15.352 -14.001  -5.646  1.00  0.00    -0.265 OA
BRANCH  23  25
HETATM   25  C   UNL     1     -14.456 -13.438  -3.491  1.00  0.00     0.149 C 
BRANCH  25  26
HETATM   26  C   UNL     1     -14.946 -13.030  -2.121  1.00  0.00    -0.046 C 
HETATM   27  C   UNL     1     -14.681 -13.820  -1.005  1.00  0.00     0.047 C 
HETATM   28  C   UNL     1     -14.902 -13.365   0.289  1.00  0.00     0.101 C 
HETATM   29  C   UNL     1     -15.629 -12.190   0.468  1.00  0.00     0.099 C 
HETATM   30  C   UNL     1     -16.060 -11.454  -0.637  1.00  0.00     0.040 C 
HETATM   31  C   UNL     1     -15.690 -11.853  -1.927  1.00  0.00     0.010 C 
BRANCH  28  32
HETATM   32  O   UNL     1     -14.413 -14.031   1.382  1.00  0.00    -0.353 OA
HETATM   33  C   UNL     1     -13.101 -14.560   1.200  1.00  0.00     0.210 C 
ENDBRANCH  28  32
BRANCH  29  34
HETATM   34  O   UNL     1     -15.900 -11.764   1.737  1.00  0.00    -0.358 OA
HETATM   35  H   UNL     1     -15.088 -11.417   2.134  1.00  0.00     0.217 HD
ENDBRANCH  29  34
ENDBRANCH  25  26
ENDBRANCH  23  25
ENDBRANCH  22  23
ENDBRANCH  21  22
ENDBRANCH   1  21
BRANCH  19  36
HETATM   36  O   UNL     1     -22.145 -13.568  -5.796  1.00  0.00    -0.381 OA
HETATM   37  H   UNL     1     -21.985 -14.528  -5.972  1.00  0.00     0.211 HD
ENDBRANCH  19  36
BRANCH  12  38
HETATM   38  O   UNL     1     -22.646 -11.879  -3.751  1.00  0.00    -0.387 OA
HETATM   39  H   UNL     1     -23.323 -11.378  -3.264  1.00  0.00     0.210 HD
ENDBRANCH  12  38
BRANCH   8  40
HETATM   40  O   UNL     1     -21.145  -8.246  -0.684  1.00  0.00    -0.306 OA
BRANCH  40  41
HETATM   41  C   UNL     1     -22.311  -7.519  -0.509  1.00  0.00     0.255 C 
HETATM   42  C   UNL     1     -23.116  -7.914   0.706  1.00  0.00     0.126 C 
HETATM   43  O   UNL     1     -22.658  -6.562  -1.192  1.00  0.00    -0.266 OA
ENDBRANCH  40  41
ENDBRANCH   8  40
BRANCH   9  44
HETATM   44  O   UNL     1     -22.711 -11.474  -1.524  1.00  0.00    -0.312 OA
BRANCH  44  45
HETATM   45  C   UNL     1     -23.784 -11.834  -0.797  1.00  0.00     0.263 C 
HETATM   46  O   UNL     1     -24.402 -11.095  -0.028  1.00  0.00    -0.265 OA
BRANCH  45  47
HETATM   47  C   UNL     1     -24.046 -13.328  -0.942  1.00  0.00     0.149 C 
BRANCH  47  48
HETATM   48  C   UNL     1     -23.422 -14.084   0.191  1.00  0.00    -0.049 A 
HETATM   49  C   UNL     1     -23.689 -13.703   1.510  1.00  0.00     0.007 A 
HETATM   50  C   UNL     1     -22.992 -14.297   2.559  1.00  0.00     0.001 A 
HETATM   51  C   UNL     1     -22.031 -15.278   2.292  1.00  0.00     0.000 A 
HETATM   52  C   UNL     1     -21.786 -15.681   0.981  1.00  0.00     0.001 A 
HETATM   53  C   UNL     1     -22.483 -15.091  -0.070  1.00  0.00     0.007 A 
ENDBRANCH  47  48
ENDBRANCH  45  47
ENDBRANCH  44  45
ENDBRANCH   9  44
TORSDOF 15
ENDMDL
MODEL 8
REMARK VINA RESULT:      -8.0      3.961      8.591
REMARK  15 active torsions:
REMARK  status: ('A' for Active; 'I' for Inactive)
REMARK    1  A    between atoms: O_2  and  C_3 
REMARK    2  A    between atoms: C_5  and  C_6 
REMARK    3  A    between atoms: C_6  and  C_7 
REMARK    4  A    between atoms: C_7  and  O_9 
REMARK    5  A    between atoms: O_9  and  C_10 
REMARK    6  A    between atoms: C_10  and  C_11 
REMARK    7  A    between atoms: C_18  and  O_19 
REMARK    8  A    between atoms: O_19  and  C_20 
REMARK    9  A    between atoms: C_23  and  O_24 
REMARK   10  A    between atoms: O_24  and  C_25 
REMARK   11  A    between atoms: C_25  and  C_27 
REMARK   12  A    between atoms: C_27  and  C_28 
REMARK   13  A    between atoms: C_36  and  O_37 
REMARK   14  A    between atoms: C_44  and  O_45 
REMARK   15  A    between atoms: C_49  and  O_50 
ROOT
HETATM    1  C   UNL     1     -17.852 -14.205  -1.900  1.00  0.00    -0.050 C 
HETATM    2  C   UNL     1     -18.289 -13.015  -1.108  1.00  0.00    -0.013 C 
HETATM    3  C   UNL     1     -19.475 -11.586  -1.553  1.00  0.00     0.052 C 
HETATM    4  C   UNL     1     -19.732 -10.216  -0.542  1.00  0.00     0.046 A 
HETATM    5  C   UNL     1     -20.721 -10.038   0.610  1.00  0.00    -0.005 A 
HETATM    6  C   UNL     1     -21.063 -11.353   1.250  1.00  0.00     0.018 C 
HETATM    7  C   UNL     1     -20.653  -8.943   1.666  1.00  0.00     0.018 C 
HETATM    8  C   UNL     1     -21.065  -9.428  -0.780  1.00  0.00     0.110 A 
HETATM    9  C   UNL     1     -21.903  -9.998  -1.871  1.00  0.00     0.174 C 
HETATM   10  C   UNL     1     -20.988 -10.017  -3.205  1.00  0.00     0.050 C 
HETATM   11  C   UNL     1     -19.862  -8.983  -3.408  1.00  0.00     0.016 C 
HETATM   12  C   UNL     1     -20.436 -11.416  -3.217  1.00  0.00     0.086 C 
HETATM   13  C   UNL     1     -19.620 -12.090  -4.709  1.00  0.00     0.131 A 
HETATM   14  C   UNL     1     -18.218 -11.669  -4.802  1.00  0.00    -0.000 C 
HETATM   15  C   UNL     1     -17.792 -12.096  -3.630  1.00  0.00    -0.029 C 
HETATM   16  C   UNL     1     -16.660 -11.383  -2.922  1.00  0.00     0.051 C 
HETATM   17  C   UNL     1     -19.143 -13.155  -3.377  1.00  0.00     0.099 A 
HETATM   18  O   UNL     1     -19.989 -13.503  -2.522  1.00  0.00    -0.304 OA
HETATM   19  C   UNL     1     -19.416 -13.742  -4.601  1.00  0.00     0.134 A 
HETATM   20  C   UNL     1     -18.496 -14.754  -3.549  1.00  0.00     0.141 A 
ENDROOT
BRANCH   1  21
HETATM   21  C   UNL     1     -16.786 -15.298  -1.793  1.00  0.00     0.213 C 
BRANCH  21  22
HETATM   22  O   UNL     1     -15.558 -15.047  -1.152  1.00  0.00    -0.317 OA
BRANCH  22  23
HETATM   23  C   UNL     1     -14.472 -15.523  -1.822  1.00  0.00     0.263 C 
HETATM   24  O   UNL     1     -14.179 -16.709  -1.890  1.00  0.00    -0.265 OA
BRANCH  23  25
HETATM   25  C   UNL     1     -13.546 -14.449  -2.398  1.00  0.00     0.149 C 
BRANCH  25  26
HETATM   26  C   UNL     1     -13.901 -13.822  -3.727  1.00  0.00    -0.046 C 
HETATM   27  C   UNL     1     -14.777 -14.458  -4.603  1.00  0.00     0.047 C 
HETATM   28  C   UNL     1     -15.309 -13.810  -5.711  1.00  0.00     0.101 C 
HETATM   29  C   UNL     1     -14.770 -12.583  -6.089  1.00  0.00     0.099 C 
HETATM   30  C   UNL     1     -13.764 -11.989  -5.323  1.00  0.00     0.040 C 
HETATM   31  C   UNL     1     -13.355 -12.589  -4.126  1.00  0.00     0.010 C 
BRANCH  28  32
HETATM   32  O   UNL     1     -16.352 -14.340  -6.425  1.00  0.00    -0.353 OA
HETATM   33  C   UNL     1     -16.239 -15.742  -6.662  1.00  0.00     0.210 C 
ENDBRANCH  28  32
BRANCH  29  34
HETATM   34  O   UNL     1     -15.246 -11.965  -7.210  1.00  0.00    -0.358 OA
HETATM   35  H   UNL     1     -16.000 -11.406  -6.966  1.00  0.00     0.217 HD
ENDBRANCH  29  34
ENDBRANCH  25  26
ENDBRANCH  23  25
ENDBRANCH  22  23
ENDBRANCH  21  22
ENDBRANCH   1  21
BRANCH  19  36
HETATM   36  O   UNL     1     -20.697 -14.324  -4.766  1.00  0.00    -0.381 OA
HETATM   37  H   UNL     1     -21.318 -13.555  -4.718  1.00  0.00     0.211 HD
ENDBRANCH  19  36
BRANCH  12  38
HETATM   38  O   UNL     1     -21.679 -12.218  -3.393  1.00  0.00    -0.387 OA
HETATM   39  H   UNL     1     -22.404 -11.613  -3.630  1.00  0.00     0.210 HD
ENDBRANCH  12  38
BRANCH   8  40
HETATM   40  O   UNL     1     -20.948  -7.935  -0.947  1.00  0.00    -0.306 OA
BRANCH  40  41
HETATM   41  C   UNL     1     -22.110  -7.185  -1.026  1.00  0.00     0.255 C 
HETATM   42  C   UNL     1     -22.166  -6.245  -2.206  1.00  0.00     0.126 C 
HETATM   43  O   UNL     1     -23.081  -7.305  -0.287  1.00  0.00    -0.266 OA
ENDBRANCH  40  41
ENDBRANCH   8  40
BRANCH   9  44
HETATM   44  O   UNL     1     -22.352 -11.307  -1.432  1.00  0.00    -0.312 OA
BRANCH  44  45
HETATM   45  C   UNL     1     -23.560 -11.493  -0.869  1.00  0.00     0.263 C 
HETATM   46  O   UNL     1     -24.203 -10.630  -0.268  1.00  0.00    -0.265 OA
BRANCH  45  47
HETATM   47  C   UNL     1     -23.962 -12.960  -0.948  1.00  0.00     0.149 C 
BRANCH  47  48
HETATM   48  C   UNL     1     -23.307 -13.746   0.147  1.00  0.00    -0.049 A 
HETATM   49  C   UNL     1     -23.764 -13.615   1.463  1.00  0.00     0.007 A 
HETATM   50  C   UNL     1     -23.062 -14.217   2.503  1.00  0.00     0.001 A 
HETATM   51  C   UNL     1     -21.906 -14.956   2.230  1.00  0.00     0.000 A 
HETATM   52  C   UNL     1     -21.467 -15.113   0.918  1.00  0.00     0.001 A 
HETATM   53  C   UNL     1     -22.168 -14.515  -0.126  1.00  0.00     0.007 A 
ENDBRANCH  47  48
ENDBRANCH  45  47
ENDBRANCH  44  45
ENDBRANCH   9  44
TORSDOF 15
ENDMDL
MODEL 9
REMARK VINA RESULT:      -8.0      4.359      7.917
REMARK  15 active torsions:
REMARK  status: ('A' for Active; 'I' for Inactive)
REMARK    1  A    between atoms: O_2  and  C_3 
REMARK    2  A    between atoms: C_5  and  C_6 
REMARK    3  A    between atoms: C_6  and  C_7 
REMARK    4  A    between atoms: C_7  and  O_9 
REMARK    5  A    between atoms: O_9  and  C_10 
REMARK    6  A    between atoms: C_10  and  C_11 
REMARK    7  A    between atoms: C_18  and  O_19 
REMARK    8  A    between atoms: O_19  and  C_20 
REMARK    9  A    between atoms: C_23  and  O_24 
REMARK   10  A    between atoms: O_24  and  C_25 
REMARK   11  A    between atoms: C_25  and  C_27 
REMARK   12  A    between atoms: C_27  and  C_28 
REMARK   13  A    between atoms: C_36  and  O_37 
REMARK   14  A    between atoms: C_44  and  O_45 
REMARK   15  A    between atoms: C_49  and  O_50 
ROOT
HETATM    1  C   UNL     1     -19.251 -14.590  -5.683  1.00  0.00    -0.050 C 
HETATM    2  C   UNL     1     -19.040 -13.789  -4.439  1.00  0.00    -0.013 C 
HETATM    3  C   UNL     1     -20.230 -12.652  -3.469  1.00  0.00     0.052 C 
HETATM    4  C   UNL     1     -19.739 -11.690  -2.128  1.00  0.00     0.046 A 
HETATM    5  C   UNL     1     -19.661 -12.065  -0.648  1.00  0.00    -0.005 A 
HETATM    6  C   UNL     1     -19.443 -13.540  -0.465  1.00  0.00     0.018 C 
HETATM    7  C   UNL     1     -18.901 -11.286   0.418  1.00  0.00     0.018 C 
HETATM    8  C   UNL     1     -20.881 -11.241  -1.152  1.00  0.00     0.110 A 
HETATM    9  C   UNL     1     -22.231 -11.720  -1.560  1.00  0.00     0.174 C 
HETATM   10  C   UNL     1     -22.491 -11.170  -3.058  1.00  0.00     0.050 C 
HETATM   11  C   UNL     1     -21.836  -9.863  -3.548  1.00  0.00     0.016 C 
HETATM   12  C   UNL     1     -22.077 -12.330  -3.921  1.00  0.00     0.086 C 
HETATM   13  C   UNL     1     -22.507 -12.378  -5.699  1.00  0.00     0.131 A 
HETATM   14  C   UNL     1     -21.566 -11.599  -6.510  1.00  0.00    -0.000 C 
HETATM   15  C   UNL     1     -20.440 -12.178  -6.140  1.00  0.00    -0.029 C 
HETATM   16  C   UNL     1     -19.146 -11.394  -6.130  1.00  0.00     0.051 C 
HETATM   17  C   UNL     1     -21.224 -13.579  -5.482  1.00  0.00     0.099 A 
HETATM   18  O   UNL     1     -21.238 -14.334  -4.483  1.00  0.00    -0.304 OA
HETATM   19  C   UNL     1     -22.256 -13.895  -6.348  1.00  0.00     0.134 A 
HETATM   20  C   UNL     1     -20.847 -14.862  -6.586  1.00  0.00     0.141 A 
ENDROOT
BRANCH   1  21
HETATM   21  C   UNL     1     -18.388 -15.361  -6.684  1.00  0.00     0.213 C 
BRANCH  21  22
HETATM   22  O   UNL     1     -16.992 -15.191  -6.713  1.00  0.00    -0.317 OA
BRANCH  22  23
HETATM   23  C   UNL     1     -16.589 -13.940  -7.067  1.00  0.00     0.263 C 
HETATM   24  O   UNL     1     -17.043 -13.321  -8.021  1.00  0.00    -0.265 OA
BRANCH  23  25
HETATM   25  C   UNL     1     -15.417 -13.383  -6.255  1.00  0.00     0.149 C 
BRANCH  25  26
HETATM   26  C   UNL     1     -15.660 -12.198  -5.350  1.00  0.00    -0.046 C 
HETATM   27  C   UNL     1     -16.025 -12.381  -4.018  1.00  0.00     0.047 C 
HETATM   28  C   UNL     1     -16.021 -11.336  -3.103  1.00  0.00     0.101 C 
HETATM   29  C   UNL     1     -15.885 -10.034  -3.578  1.00  0.00     0.099 C 
HETATM   30  C   UNL     1     -15.685  -9.798  -4.940  1.00  0.00     0.040 C 
HETATM   31  C   UNL     1     -15.537 -10.878  -5.819  1.00  0.00     0.010 C 
BRANCH  28  32
HETATM   32  O   UNL     1     -16.133 -11.556  -1.755  1.00  0.00    -0.353 OA
HETATM   33  C   UNL     1     -15.573 -12.795  -1.322  1.00  0.00     0.210 C 
ENDBRANCH  28  32
BRANCH  29  34
HETATM   34  O   UNL     1     -15.937  -8.995  -2.693  1.00  0.00    -0.358 OA
HETATM   35  H   UNL     1     -15.982  -9.349  -1.792  1.00  0.00     0.217 HD
ENDBRANCH  29  34
ENDBRANCH  25  26
ENDBRANCH  23  25
ENDBRANCH  22  23
ENDBRANCH  21  22
ENDBRANCH   1  21
BRANCH  19  36
HETATM   36  O   UNL     1     -23.286 -14.729  -5.847  1.00  0.00    -0.381 OA
HETATM   37  H   UNL     1     -23.645 -14.229  -5.073  1.00  0.00     0.211 HD
ENDBRANCH  19  36
BRANCH  12  38
HETATM   38  O   UNL     1     -23.083 -13.357  -3.531  1.00  0.00    -0.387 OA
HETATM   39  H   UNL     1     -22.796 -14.217  -3.885  1.00  0.00     0.210 HD
ENDBRANCH  12  38
BRANCH   8  40
HETATM   40  O   UNL     1     -20.937  -9.775  -0.807  1.00  0.00    -0.306 OA
BRANCH  40  41
HETATM   41  C   UNL     1     -21.845  -9.356   0.153  1.00  0.00     0.255 C 
HETATM   42  C   UNL     1     -21.216  -8.739   1.379  1.00  0.00     0.126 C 
HETATM   43  O   UNL     1     -23.064  -9.370   0.027  1.00  0.00    -0.266 OA
ENDBRANCH  40  41
ENDBRANCH   8  40
BRANCH   9  44
HETATM   44  O   UNL     1     -22.228 -13.167  -1.443  1.00  0.00    -0.312 OA
BRANCH  44  45
HETATM   45  C   UNL     1     -23.036 -13.812  -0.581  1.00  0.00     0.263 C 
HETATM   46  O   UNL     1     -23.665 -14.842  -0.832  1.00  0.00    -0.265 OA
BRANCH  45  47
HETATM   47  C   UNL     1     -23.185 -13.011   0.707  1.00  0.00     0.149 C 
BRANCH  47  48
HETATM   48  C   UNL     1     -22.976 -13.891   1.901  1.00  0.00    -0.049 A 
HETATM   49  C   UNL     1     -21.729 -14.490   2.113  1.00  0.00     0.007 A 
HETATM   50  C   UNL     1     -21.575 -15.430   3.128  1.00  0.00     0.001 A 
HETATM   51  C   UNL     1     -22.664 -15.770   3.937  1.00  0.00     0.000 A 
HETATM   52  C   UNL     1     -23.898 -15.152   3.748  1.00  0.00     0.001 A 
HETATM   53  C   UNL     1     -24.056 -14.209   2.736  1.00  0.00     0.007 A 
ENDBRANCH  47  48
ENDBRANCH  45  47
ENDBRANCH  44  45
ENDBRANCH   9  44
TORSDOF 15
ENDMDL
