MODEL 1
REMARK VINA RESULT:      -8.2      0.000      0.000
REMARK  4 active torsions:
REMARK  status: ('A' for Active; 'I' for Inactive)
REMARK    1  A    between atoms: C_5  and  N_6 
REMARK       I    between atoms: N_6  and  C_7 
REMARK       I    between atoms: C_7  and  N_9 
REMARK    2  A    between atoms: N_9  and  C_10 
REMARK    3  A    between atoms: C_12  and  C_13 
REMARK    4  A    between atoms: C_12  and  C_15 
ROOT
HETATM    1  N   UNL     1     -19.530 -10.184  -1.428  1.00  0.00    -0.308 N 
HETATM    2  C   UNL     1     -19.686 -11.268  -2.242  1.00  0.00     0.321 C 
HETATM    3  O   UNL     1     -20.723 -11.631  -2.779  1.00  0.00    -0.247 OA
HETATM    4  N   UNL     1     -18.567 -12.030  -2.375  1.00  0.00    -0.334 N 
HETATM    5  H   UNL     1     -18.935 -10.431  -0.653  1.00  0.00     0.170 HD
HETATM    6  H   UNL     1     -18.812 -12.982  -2.615  1.00  0.00     0.165 HD
ENDROOT
BRANCH   4   7
HETATM    7  C   UNL     1     -17.189 -11.750  -2.008  1.00  0.00     0.125 C 
HETATM    8  C   UNL     1     -16.481 -10.716  -2.960  1.00  0.00     0.073 C 
HETATM    9  C   UNL     1     -16.571 -11.206  -4.440  1.00  0.00     0.121 C 
HETATM   10  O   UNL     1     -16.584 -12.663  -4.477  1.00  0.00    -0.335 OA
HETATM   11  C   UNL     1     -15.846 -13.194  -3.440  1.00  0.00     0.080 C 
HETATM   12  C   UNL     1     -14.580 -13.728  -3.624  1.00  0.00     0.061 C 
HETATM   13  C   UNL     1     -16.324 -12.981  -2.143  1.00  0.00    -0.002 C 
HETATM   14  C   UNL     1     -13.874 -14.169  -2.502  1.00  0.00     0.036 C 
HETATM   15 CL   UNL     1     -12.201 -14.557  -2.644  1.00  0.00    -0.084 Cl
HETATM   16  C   UNL     1     -14.474 -14.203  -1.239  1.00  0.00     0.024 C 
HETATM   17  C   UNL     1     -15.716 -13.601  -1.050  1.00  0.00     0.013 C 
BRANCH   9  18
HETATM   18  C   UNL     1     -15.444 -10.826  -5.414  1.00  0.00     0.263 C 
HETATM   19  F   UNL     1     -15.201  -9.481  -5.263  1.00  0.00    -0.252 F 
ENDBRANCH   9  18
BRANCH   9  20
HETATM   20  C   UNL     1     -17.835 -10.550  -5.041  1.00  0.00     0.263 C 
HETATM   21  F   UNL     1     -18.002  -9.329  -4.446  1.00  0.00    -0.252 F 
ENDBRANCH   9  20
ENDBRANCH   4   7
BRANCH   1  22
HETATM   22  C   UNL     1     -20.583  -9.308  -1.079  1.00  0.00     0.047 A 
HETATM   23  C   UNL     1     -21.026  -8.220  -1.892  1.00  0.00     0.004 A 
HETATM   24  C   UNL     1     -20.595  -7.941  -3.212  1.00  0.00     0.039 A 
HETATM   25  C   UNL     1     -21.946  -7.319  -1.318  1.00  0.00    -0.008 A 
HETATM   26  C   UNL     1     -21.080  -6.821  -3.894  1.00  0.00     0.005 A 
HETATM   27  C   UNL     1     -20.701  -6.557  -5.319  1.00  0.00     0.068 C 
HETATM   28  N   UNL     1     -21.918  -5.933  -3.323  1.00  0.00    -0.369 N 
HETATM   29  C   UNL     1     -22.325  -6.199  -2.064  1.00  0.00     0.100 A 
ATOM     30  HN  UNL     1     -22.230  -5.099  -3.819  1.00  0.00     0.165 HD
HETATM   31  C   UNL     1     -22.450  -7.524  -0.023  1.00  0.00     0.014 A 
HETATM   32  C   UNL     1     -22.049  -8.620   0.731  1.00  0.00     0.003 A 
HETATM   33  C   UNL     1     -21.104  -9.494   0.212  1.00  0.00     0.030 A 
ENDBRANCH   1  22
TORSDOF 4
ENDMDL
MODEL 2
REMARK VINA RESULT:      -8.2      2.819      3.843
REMARK  4 active torsions:
REMARK  status: ('A' for Active; 'I' for Inactive)
REMARK    1  A    between atoms: C_5  and  N_6 
REMARK       I    between atoms: N_6  and  C_7 
REMARK       I    between atoms: C_7  and  N_9 
REMARK    2  A    between atoms: N_9  and  C_10 
REMARK    3  A    between atoms: C_12  and  C_13 
REMARK    4  A    between atoms: C_12  and  C_15 
ROOT
HETATM    1  N   UNL     1     -19.561 -10.462  -2.687  1.00  0.00    -0.308 N 
HETATM    2  C   UNL     1     -18.291 -10.077  -3.005  1.00  0.00     0.321 C 
HETATM    3  O   UNL     1     -17.712  -9.078  -2.603  1.00  0.00    -0.247 OA
HETATM    4  N   UNL     1     -17.681 -10.873  -3.924  1.00  0.00    -0.334 N 
HETATM    5  H   UNL     1     -20.023 -10.805  -3.515  1.00  0.00     0.170 HD
HETATM    6  H   UNL     1     -16.965 -10.360  -4.420  1.00  0.00     0.165 HD
ENDROOT
BRANCH   4   7
HETATM    7  C   UNL     1     -18.052 -12.187  -4.424  1.00  0.00     0.125 C 
HETATM    8  C   UNL     1     -16.920 -13.267  -4.257  1.00  0.00     0.073 C 
HETATM    9  C   UNL     1     -15.604 -12.769  -4.934  1.00  0.00     0.121 C 
HETATM   10  O   UNL     1     -15.927 -11.912  -6.067  1.00  0.00    -0.335 OA
HETATM   11  C   UNL     1     -17.107 -12.302  -6.667  1.00  0.00     0.080 C 
HETATM   12  C   UNL     1     -17.139 -13.000  -7.864  1.00  0.00     0.061 C 
HETATM   13  C   UNL     1     -18.279 -12.162  -5.917  1.00  0.00    -0.002 C 
HETATM   14  C   UNL     1     -18.376 -13.425  -8.354  1.00  0.00     0.036 C 
HETATM   15 CL   UNL     1     -18.437 -14.541  -9.665  1.00  0.00    -0.084 Cl
HETATM   16  C   UNL     1     -19.569 -13.040  -7.734  1.00  0.00     0.024 C 
HETATM   17  C   UNL     1     -19.526 -12.401  -6.497  1.00  0.00     0.013 C 
BRANCH   9  18
HETATM   18  C   UNL     1     -14.638 -13.808  -5.526  1.00  0.00     0.263 C 
HETATM   19  F   UNL     1     -13.869 -13.169  -6.470  1.00  0.00    -0.252 F 
ENDBRANCH   9  18
BRANCH   9  20
HETATM   20  C   UNL     1     -14.783 -12.067  -3.828  1.00  0.00     0.263 C 
HETATM   21  F   UNL     1     -13.702 -12.856  -3.540  1.00  0.00    -0.252 F 
ENDBRANCH   9  20
ENDBRANCH   4   7
BRANCH   1  22
HETATM   22  C   UNL     1     -20.409  -9.730  -1.825  1.00  0.00     0.047 A 
HETATM   23  C   UNL     1     -21.057  -8.509  -2.183  1.00  0.00     0.004 A 
HETATM   24  C   UNL     1     -21.077  -7.927  -3.474  1.00  0.00     0.039 A 
HETATM   25  C   UNL     1     -21.705  -7.797  -1.152  1.00  0.00    -0.008 A 
HETATM   26  C   UNL     1     -21.721  -6.705  -3.690  1.00  0.00     0.005 A 
HETATM   27  C   UNL     1     -21.825  -6.116  -5.064  1.00  0.00     0.068 C 
HETATM   28  N   UNL     1     -22.292  -6.002  -2.692  1.00  0.00    -0.369 N 
HETATM   29  C   UNL     1     -22.270  -6.556  -1.462  1.00  0.00     0.100 A 
ATOM     30  HN  UNL     1     -22.722  -5.092  -2.860  1.00  0.00     0.165 HD
HETATM   31  C   UNL     1     -21.759  -8.304   0.157  1.00  0.00     0.014 A 
HETATM   32  C   UNL     1     -21.169  -9.522   0.472  1.00  0.00     0.003 A 
HETATM   33  C   UNL     1     -20.480 -10.219  -0.510  1.00  0.00     0.030 A 
ENDBRANCH   1  22
TORSDOF 4
ENDMDL
MODEL 3
REMARK VINA RESULT:      -8.1      1.416      1.775
REMARK  4 active torsions:
REMARK  status: ('A' for Active; 'I' for Inactive)
REMARK    1  A    between atoms: C_5  and  N_6 
REMARK       I    between atoms: N_6  and  C_7 
REMARK       I    between atoms: C_7  and  N_9 
REMARK    2  A    between atoms: N_9  and  C_10 
REMARK    3  A    between atoms: C_12  and  C_13 
REMARK    4  A    between atoms: C_12  and  C_15 
ROOT
HETATM    1  N   UNL     1     -19.464  -9.994  -1.156  1.00  0.00    -0.308 N 
HETATM    2  C   UNL     1     -19.507 -11.176  -1.836  1.00  0.00     0.321 C 
HETATM    3  O   UNL     1     -20.485 -11.663  -2.386  1.00  0.00    -0.247 OA
HETATM    4  N   UNL     1     -18.345 -11.881  -1.804  1.00  0.00    -0.334 N 
HETATM    5  H   UNL     1     -18.910 -10.110  -0.321  1.00  0.00     0.170 HD
HETATM    6  H   UNL     1     -18.523 -12.868  -1.938  1.00  0.00     0.165 HD
ENDROOT
BRANCH   4   7
HETATM    7  C   UNL     1     -17.011 -11.477  -1.391  1.00  0.00     0.125 C 
HETATM    8  C   UNL     1     -15.998 -11.332  -2.586  1.00  0.00     0.073 C 
HETATM    9  C   UNL     1     -15.945 -12.659  -3.405  1.00  0.00     0.121 C 
HETATM   10  O   UNL     1     -16.204 -13.792  -2.525  1.00  0.00    -0.335 OA
HETATM   11  C   UNL     1     -15.736 -13.550  -1.250  1.00  0.00     0.080 C 
HETATM   12  C   UNL     1     -14.569 -14.118  -0.764  1.00  0.00     0.061 C 
HETATM   13  C   UNL     1     -16.362 -12.531  -0.525  1.00  0.00    -0.002 C 
HETATM   14  C   UNL     1     -14.129 -13.751   0.510  1.00  0.00     0.036 C 
HETATM   15 CL   UNL     1     -12.547 -14.196   1.028  1.00  0.00    -0.084 Cl
HETATM   16  C   UNL     1     -14.911 -12.939   1.337  1.00  0.00     0.024 C 
HETATM   17  C   UNL     1     -16.044 -12.316   0.818  1.00  0.00     0.013 C 
BRANCH   9  18
HETATM   18  C   UNL     1     -14.634 -13.040  -4.112  1.00  0.00     0.263 C 
HETATM   19  F   UNL     1     -13.622 -12.316  -3.527  1.00  0.00    -0.252 F 
ENDBRANCH   9  18
BRANCH   9  20
HETATM   20  C   UNL     1     -16.970 -12.507  -4.552  1.00  0.00     0.263 C 
HETATM   21  F   UNL     1     -17.177 -11.170  -4.759  1.00  0.00    -0.252 F 
ENDBRANCH   9  20
ENDBRANCH   4   7
BRANCH   1  22
HETATM   22  C   UNL     1     -20.582  -9.147  -0.984  1.00  0.00     0.047 A 
HETATM   23  C   UNL     1     -21.003  -8.170  -1.937  1.00  0.00     0.004 A 
HETATM   24  C   UNL     1     -20.475  -8.000  -3.240  1.00  0.00     0.039 A 
HETATM   25  C   UNL     1     -22.009  -7.268  -1.534  1.00  0.00    -0.008 A 
HETATM   26  C   UNL     1     -20.951  -6.981  -4.070  1.00  0.00     0.005 A 
HETATM   27  C   UNL     1     -20.465  -6.839  -5.480  1.00  0.00     0.068 C 
HETATM   28  N   UNL     1     -21.874  -6.088  -3.662  1.00  0.00    -0.369 N 
HETATM   29  C   UNL     1     -22.375  -6.250  -2.419  1.00  0.00     0.100 A 
ATOM     30  HN  UNL     1     -22.181  -5.325  -4.266  1.00  0.00     0.165 HD
HETATM   31  C   UNL     1     -22.611  -7.371  -0.269  1.00  0.00     0.014 A 
HETATM   32  C   UNL     1     -22.225  -8.364   0.624  1.00  0.00     0.003 A 
HETATM   33  C   UNL     1     -21.201  -9.232   0.274  1.00  0.00     0.030 A 
ENDBRANCH   1  22
TORSDOF 4
ENDMDL
MODEL 4
REMARK VINA RESULT:      -7.8      2.858      4.521
REMARK  4 active torsions:
REMARK  status: ('A' for Active; 'I' for Inactive)
REMARK    1  A    between atoms: C_5  and  N_6 
REMARK       I    between atoms: N_6  and  C_7 
REMARK       I    between atoms: C_7  and  N_9 
REMARK    2  A    between atoms: N_9  and  C_10 
REMARK    3  A    between atoms: C_12  and  C_13 
REMARK    4  A    between atoms: C_12  and  C_15 
ROOT
HETATM    1  N   UNL     1     -19.336  -9.653  -4.014  1.00  0.00    -0.308 N 
HETATM    2  C   UNL     1     -18.130  -9.900  -3.425  1.00  0.00     0.321 C 
HETATM    3  O   UNL     1     -17.467  -9.112  -2.766  1.00  0.00    -0.247 OA
HETATM    4  N   UNL     1     -17.622 -11.133  -3.691  1.00  0.00    -0.334 N 
HETATM    5  H   UNL     1     -19.351 -10.070  -4.932  1.00  0.00     0.170 HD
HETATM    6  H   UNL     1     -16.615 -11.129  -3.604  1.00  0.00     0.165 HD
ENDROOT
BRANCH   4   7
HETATM    7  C   UNL     1     -18.254 -12.304  -4.278  1.00  0.00     0.125 C 
HETATM    8  C   UNL     1     -17.547 -13.658  -3.899  1.00  0.00     0.073 C 
HETATM    9  C   UNL     1     -16.035 -13.595  -4.281  1.00  0.00     0.121 C 
HETATM   10  O   UNL     1     -15.856 -12.734  -5.444  1.00  0.00    -0.335 OA
HETATM   11  C   UNL     1     -16.952 -12.791  -6.280  1.00  0.00     0.080 C 
HETATM   12  C   UNL     1     -16.946 -13.504  -7.468  1.00  0.00     0.061 C 
HETATM   13  C   UNL     1     -18.158 -12.283  -5.785  1.00  0.00    -0.002 C 
HETATM   14  C   UNL     1     -18.128 -13.573  -8.210  1.00  0.00     0.036 C 
HETATM   15 CL   UNL     1     -18.249 -14.682  -9.523  1.00  0.00    -0.084 Cl
HETATM   16  C   UNL     1     -19.254 -12.830  -7.842  1.00  0.00     0.024 C 
HETATM   17  C   UNL     1     -19.276 -12.174  -6.613  1.00  0.00     0.013 C 
BRANCH   9  18
HETATM   18  C   UNL     1     -15.318 -14.896  -4.678  1.00  0.00     0.263 C 
HETATM   19  F   UNL     1     -14.085 -14.554  -5.180  1.00  0.00    -0.252 F 
ENDBRANCH   9  18
BRANCH   9  20
HETATM   20  C   UNL     1     -15.284 -13.112  -3.020  1.00  0.00     0.263 C 
HETATM   21  F   UNL     1     -14.464 -12.078  -3.385  1.00  0.00    -0.252 F 
ENDBRANCH   9  20
ENDBRANCH   4   7
BRANCH   1  22
HETATM   22  C   UNL     1     -20.001  -8.407  -3.945  1.00  0.00     0.047 A 
HETATM   23  C   UNL     1     -20.699  -7.933  -2.793  1.00  0.00     0.004 A 
HETATM   24  C   UNL     1     -20.710  -8.548  -1.517  1.00  0.00     0.039 A 
HETATM   25  C   UNL     1     -21.479  -6.768  -2.946  1.00  0.00    -0.008 A 
HETATM   26  C   UNL     1     -21.463  -8.001  -0.474  1.00  0.00     0.005 A 
HETATM   27  C   UNL     1     -21.420  -8.589   0.904  1.00  0.00     0.068 C 
HETATM   28  N   UNL     1     -22.248  -6.919  -0.639  1.00  0.00    -0.369 N 
HETATM   29  C   UNL     1     -22.239  -6.336  -1.855  1.00  0.00     0.100 A 
ATOM     30  HN  UNL     1     -22.824  -6.557   0.122  1.00  0.00     0.165 HD
HETATM   31  C   UNL     1     -21.514  -6.074  -4.167  1.00  0.00     0.014 A 
HETATM   32  C   UNL     1     -20.782  -6.522  -5.261  1.00  0.00     0.003 A 
HETATM   33  C   UNL     1     -20.048  -7.694  -5.154  1.00  0.00     0.030 A 
ENDBRANCH   1  22
TORSDOF 4
ENDMDL
MODEL 5
REMARK VINA RESULT:      -7.8      2.233      2.605
REMARK  4 active torsions:
REMARK  status: ('A' for Active; 'I' for Inactive)
REMARK    1  A    between atoms: C_5  and  N_6 
REMARK       I    between atoms: N_6  and  C_7 
REMARK       I    between atoms: C_7  and  N_9 
REMARK    2  A    between atoms: N_9  and  C_10 
REMARK    3  A    between atoms: C_12  and  C_13 
REMARK    4  A    between atoms: C_12  and  C_15 
ROOT
HETATM    1  N   UNL     1     -19.573 -10.348  -2.388  1.00  0.00    -0.308 N 
HETATM    2  C   UNL     1     -19.721 -11.668  -2.698  1.00  0.00     0.321 C 
HETATM    3  O   UNL     1     -20.608 -12.412  -2.303  1.00  0.00    -0.247 OA
HETATM    4  N   UNL     1     -18.718 -12.178  -3.462  1.00  0.00    -0.334 N 
HETATM    5  H   UNL     1     -18.597 -10.152  -2.222  1.00  0.00     0.170 HD
HETATM    6  H   UNL     1     -18.640 -13.177  -3.325  1.00  0.00     0.165 HD
ENDROOT
BRANCH   4   7
HETATM    7  C   UNL     1     -17.665 -11.503  -4.203  1.00  0.00     0.125 C 
HETATM    8  C   UNL     1     -18.060 -11.159  -5.686  1.00  0.00     0.073 C 
HETATM    9  C   UNL     1     -18.518 -12.453  -6.430  1.00  0.00     0.121 C 
HETATM   10  O   UNL     1     -17.815 -13.609  -5.889  1.00  0.00    -0.335 OA
HETATM   11  C   UNL     1     -16.548 -13.266  -5.462  1.00  0.00     0.080 C 
HETATM   12  C   UNL     1     -15.409 -13.577  -6.188  1.00  0.00     0.061 C 
HETATM   13  C   UNL     1     -16.457 -12.394  -4.373  1.00  0.00    -0.002 C 
HETATM   14  C   UNL     1     -14.175 -13.119  -5.719  1.00  0.00     0.036 C 
HETATM   15 CL   UNL     1     -12.785 -13.223  -6.732  1.00  0.00    -0.084 Cl
HETATM   16  C   UNL     1     -14.066 -12.481  -4.480  1.00  0.00     0.024 C 
HETATM   17  C   UNL     1     -15.219 -12.109  -3.792  1.00  0.00     0.013 C 
BRANCH   9  18
HETATM   18  C   UNL     1     -18.280 -12.558  -7.946  1.00  0.00     0.263 C 
HETATM   19  F   UNL     1     -18.354 -13.888  -8.286  1.00  0.00    -0.252 F 
ENDBRANCH   9  18
BRANCH   9  20
HETATM   20  C   UNL     1     -20.055 -12.523  -6.278  1.00  0.00     0.263 C 
HETATM   21  F   UNL     1     -20.614 -12.240  -7.495  1.00  0.00    -0.252 F 
ENDBRANCH   9  20
ENDBRANCH   4   7
BRANCH   1  22
HETATM   22  C   UNL     1     -20.448  -9.640  -1.533  1.00  0.00     0.047 A 
HETATM   23  C   UNL     1     -21.113  -8.427  -1.891  1.00  0.00     0.004 A 
HETATM   24  C   UNL     1     -21.123  -7.834  -3.177  1.00  0.00     0.039 A 
HETATM   25  C   UNL     1     -21.791  -7.737  -0.865  1.00  0.00    -0.008 A 
HETATM   26  C   UNL     1     -21.787  -6.623  -3.394  1.00  0.00     0.005 A 
HETATM   27  C   UNL     1     -21.879  -6.025  -4.764  1.00  0.00     0.068 C 
HETATM   28  N   UNL     1     -22.387  -5.940  -2.400  1.00  0.00    -0.369 N 
HETATM   29  C   UNL     1     -22.374  -6.504  -1.174  1.00  0.00     0.100 A 
ATOM     30  HN  UNL     1     -22.831  -5.036  -2.566  1.00  0.00     0.165 HD
HETATM   31  C   UNL     1     -21.857  -8.257   0.438  1.00  0.00     0.014 A 
HETATM   32  C   UNL     1     -21.249  -9.466   0.753  1.00  0.00     0.003 A 
HETATM   33  C   UNL     1     -20.531 -10.141  -0.224  1.00  0.00     0.030 A 
ENDBRANCH   1  22
TORSDOF 4
ENDMDL
MODEL 6
REMARK VINA RESULT:      -7.8      3.646      7.889
REMARK  4 active torsions:
REMARK  status: ('A' for Active; 'I' for Inactive)
REMARK    1  A    between atoms: C_5  and  N_6 
REMARK       I    between atoms: N_6  and  C_7 
REMARK       I    between atoms: C_7  and  N_9 
REMARK    2  A    between atoms: N_9  and  C_10 
REMARK    3  A    between atoms: C_12  and  C_13 
REMARK    4  A    between atoms: C_12  and  C_15 
ROOT
HETATM    1  N   UNL     1     -17.638 -11.079  -1.258  1.00  0.00    -0.308 N 
HETATM    2  C   UNL     1     -18.927 -11.469  -1.475  1.00  0.00     0.321 C 
HETATM    3  O   UNL     1     -19.423 -12.543  -1.164  1.00  0.00    -0.247 OA
HETATM    4  N   UNL     1     -19.672 -10.573  -2.177  1.00  0.00    -0.334 N 
HETATM    5  H   UNL     1     -17.295 -10.593  -2.073  1.00  0.00     0.170 HD
HETATM    6  H   UNL     1     -20.431 -11.039  -2.655  1.00  0.00     0.165 HD
ENDROOT
BRANCH   4   7
HETATM    7  C   UNL     1     -19.404  -9.183  -2.508  1.00  0.00     0.125 C 
HETATM    8  C   UNL     1     -19.945  -8.165  -1.438  1.00  0.00     0.073 C 
HETATM    9  C   UNL     1     -21.471  -8.395  -1.208  1.00  0.00     0.121 C 
HETATM   10  O   UNL     1     -22.087  -8.885  -2.434  1.00  0.00    -0.335 OA
HETATM   11  C   UNL     1     -21.454  -8.374  -3.549  1.00  0.00     0.080 C 
HETATM   12  C   UNL     1     -21.997  -7.352  -4.311  1.00  0.00     0.061 C 
HETATM   13  C   UNL     1     -20.130  -8.770  -3.766  1.00  0.00    -0.002 C 
HETATM   14  C   UNL     1     -21.246  -6.842  -5.373  1.00  0.00     0.036 C 
HETATM   15 CL   UNL     1     -21.746  -5.388  -6.152  1.00  0.00    -0.084 Cl
HETATM   16  C   UNL     1     -20.037  -7.434  -5.752  1.00  0.00     0.024 C 
HETATM   17  C   UNL     1     -19.465  -8.411  -4.941  1.00  0.00     0.013 C 
BRANCH   9  18
HETATM   18  C   UNL     1     -22.348  -7.194  -0.815  1.00  0.00     0.263 C 
HETATM   19  F   UNL     1     -23.301  -7.647   0.067  1.00  0.00    -0.252 F 
ENDBRANCH   9  18
BRANCH   9  20
HETATM   20  C   UNL     1     -21.592  -9.366  -0.012  1.00  0.00     0.263 C 
HETATM   21  F   UNL     1     -20.832  -8.871   1.013  1.00  0.00    -0.252 F 
ENDBRANCH   9  20
ENDBRANCH   4   7
BRANCH   1  22
HETATM   22  C   UNL     1     -16.667 -11.891  -0.631  1.00  0.00     0.047 A 
HETATM   23  C   UNL     1     -15.571 -12.504  -1.312  1.00  0.00     0.004 A 
HETATM   24  C   UNL     1     -15.202 -12.280  -2.661  1.00  0.00     0.039 A 
HETATM   25  C   UNL     1     -14.808 -13.445  -0.590  1.00  0.00    -0.008 A 
HETATM   26  C   UNL     1     -14.123 -12.969  -3.224  1.00  0.00     0.005 A 
HETATM   27  C   UNL     1     -13.666 -12.683  -4.621  1.00  0.00     0.068 C 
HETATM   28  N   UNL     1     -13.432 -13.906  -2.547  1.00  0.00    -0.369 N 
HETATM   29  C   UNL     1     -13.786 -14.121  -1.263  1.00  0.00     0.100 A 
ATOM     30  HN  UNL     1     -12.674 -14.430  -2.986  1.00  0.00     0.165 HD
HETATM   31  C   UNL     1     -15.083 -13.718   0.761  1.00  0.00     0.014 A 
HETATM   32  C   UNL     1     -16.120 -13.070   1.421  1.00  0.00     0.003 A 
HETATM   33  C   UNL     1     -16.920 -12.178   0.721  1.00  0.00     0.030 A 
ENDBRANCH   1  22
TORSDOF 4
ENDMDL
MODEL 7
REMARK VINA RESULT:      -7.7      1.763      3.092
REMARK  4 active torsions:
REMARK  status: ('A' for Active; 'I' for Inactive)
REMARK    1  A    between atoms: C_5  and  N_6 
REMARK       I    between atoms: N_6  and  C_7 
REMARK       I    between atoms: C_7  and  N_9 
REMARK    2  A    between atoms: N_9  and  C_10 
REMARK    3  A    between atoms: C_12  and  C_13 
REMARK    4  A    between atoms: C_12  and  C_15 
ROOT
HETATM    1  N   UNL     1     -18.636  -9.495  -3.179  1.00  0.00    -0.308 N 
HETATM    2  C   UNL     1     -18.711 -10.782  -3.626  1.00  0.00     0.321 C 
HETATM    3  O   UNL     1     -19.597 -11.259  -4.321  1.00  0.00    -0.247 OA
HETATM    4  N   UNL     1     -17.722 -11.592  -3.163  1.00  0.00    -0.334 N 
HETATM    5  H   UNL     1     -18.323  -9.492  -2.221  1.00  0.00     0.170 HD
HETATM    6  H   UNL     1     -18.024 -12.557  -3.163  1.00  0.00     0.165 HD
ENDROOT
BRANCH   4   7
HETATM    7  C   UNL     1     -16.476 -11.264  -2.490  1.00  0.00     0.125 C 
HETATM    8  C   UNL     1     -15.215 -11.336  -3.428  1.00  0.00     0.073 C 
HETATM    9  C   UNL     1     -15.128 -12.743  -4.098  1.00  0.00     0.121 C 
HETATM   10  O   UNL     1     -15.697 -13.748  -3.209  1.00  0.00    -0.335 OA
HETATM   11  C   UNL     1     -15.498 -13.413  -1.885  1.00  0.00     0.080 C 
HETATM   12  C   UNL     1     -14.535 -14.026  -1.098  1.00  0.00     0.061 C 
HETATM   13  C   UNL     1     -16.153 -12.272  -1.412  1.00  0.00    -0.002 C 
HETATM   14  C   UNL     1     -14.350 -13.564   0.207  1.00  0.00     0.036 C 
HETATM   15 CL   UNL     1     -12.979 -14.088   1.111  1.00  0.00    -0.084 Cl
HETATM   16  C   UNL     1     -15.202 -12.604   0.761  1.00  0.00     0.024 C 
HETATM   17  C   UNL     1     -16.118 -11.943  -0.055  1.00  0.00     0.013 C 
BRANCH   9  18
HETATM   18  C   UNL     1     -13.743 -13.310  -4.449  1.00  0.00     0.263 C 
HETATM   19  F   UNL     1     -12.812 -12.620  -3.709  1.00  0.00    -0.252 F 
ENDBRANCH   9  18
BRANCH   9  20
HETATM   20  C   UNL     1     -15.852 -12.625  -5.458  1.00  0.00     0.263 C 
HETATM   21  F   UNL     1     -15.814 -11.313  -5.845  1.00  0.00    -0.252 F 
ENDBRANCH   9  20
ENDBRANCH   4   7
BRANCH   1  22
HETATM   22  C   UNL     1     -19.607  -8.508  -3.462  1.00  0.00     0.047 A 
HETATM   23  C   UNL     1     -20.556  -8.020  -2.513  1.00  0.00     0.004 A 
HETATM   24  C   UNL     1     -20.579  -8.325  -1.130  1.00  0.00     0.039 A 
HETATM   25  C   UNL     1     -21.586  -7.188  -2.999  1.00  0.00    -0.008 A 
HETATM   26  C   UNL     1     -21.584  -7.808  -0.307  1.00  0.00     0.005 A 
HETATM   27  C   UNL     1     -21.576  -8.052   1.171  1.00  0.00     0.068 C 
HETATM   28  N   UNL     1     -22.596  -7.059  -0.785  1.00  0.00    -0.369 N 
HETATM   29  C   UNL     1     -22.574  -6.770  -2.104  1.00  0.00     0.100 A 
ATOM     30  HN  UNL     1     -23.345  -6.724  -0.178  1.00  0.00     0.165 HD
HETATM   31  C   UNL     1     -21.635  -6.810  -4.351  1.00  0.00     0.014 A 
HETATM   32  C   UNL     1     -20.669  -7.252  -5.249  1.00  0.00     0.003 A 
HETATM   33  C   UNL     1     -19.675  -8.113  -4.809  1.00  0.00     0.030 A 
ENDBRANCH   1  22
TORSDOF 4
ENDMDL
MODEL 8
REMARK VINA RESULT:      -7.6      2.228      3.615
REMARK  4 active torsions:
REMARK  status: ('A' for Active; 'I' for Inactive)
REMARK    1  A    between atoms: C_5  and  N_6 
REMARK       I    between atoms: N_6  and  C_7 
REMARK       I    between atoms: C_7  and  N_9 
REMARK    2  A    between atoms: N_9  and  C_10 
REMARK    3  A    between atoms: C_12  and  C_13 
REMARK    4  A    between atoms: C_12  and  C_15 
ROOT
HETATM    1  N   UNL     1     -19.605  -8.683  -3.799  1.00  0.00    -0.308 N 
HETATM    2  C   UNL     1     -19.997  -9.149  -5.020  1.00  0.00     0.321 C 
HETATM    3  O   UNL     1     -21.102  -9.019  -5.528  1.00  0.00    -0.247 OA
HETATM    4  N   UNL     1     -19.055  -9.889  -5.663  1.00  0.00    -0.334 N 
HETATM    5  H   UNL     1     -19.044  -9.384  -3.339  1.00  0.00     0.170 HD
HETATM    6  H   UNL     1     -19.489 -10.528  -6.316  1.00  0.00     0.165 HD
ENDROOT
BRANCH   4   7
HETATM    7  C   UNL     1     -17.637 -10.052  -5.387  1.00  0.00     0.125 C 
HETATM    8  C   UNL     1     -16.884 -10.933  -6.452  1.00  0.00     0.073 C 
HETATM    9  C   UNL     1     -17.585 -12.321  -6.586  1.00  0.00     0.121 C 
HETATM   10  O   UNL     1     -18.186 -12.696  -5.312  1.00  0.00    -0.335 OA
HETATM   11  C   UNL     1     -17.455 -12.201  -4.252  1.00  0.00     0.080 C 
HETATM   12  C   UNL     1     -16.617 -12.999  -3.488  1.00  0.00     0.061 C 
HETATM   13  C   UNL     1     -17.412 -10.811  -4.101  1.00  0.00    -0.002 C 
HETATM   14  C   UNL     1     -15.853 -12.395  -2.486  1.00  0.00     0.036 C 
HETATM   15 CL   UNL     1     -14.592 -13.286  -1.721  1.00  0.00    -0.084 Cl
HETATM   16  C   UNL     1     -16.025 -11.046  -2.162  1.00  0.00     0.024 C 
HETATM   17  C   UNL     1     -16.813 -10.237  -2.978  1.00  0.00     0.013 C 
BRANCH   9  18
HETATM   18  C   UNL     1     -16.733 -13.545  -6.961  1.00  0.00     0.263 C 
HETATM   19  F   UNL     1     -15.416 -13.219  -6.736  1.00  0.00    -0.252 F 
ENDBRANCH   9  18
BRANCH   9  20
HETATM   20  C   UNL     1     -18.598 -12.189  -7.745  1.00  0.00     0.263 C 
HETATM   21  F   UNL     1     -19.820 -12.605  -7.288  1.00  0.00    -0.252 F 
ENDBRANCH   9  20
ENDBRANCH   4   7
BRANCH   1  22
HETATM   22  C   UNL     1     -20.454  -7.969  -2.923  1.00  0.00     0.047 A 
HETATM   23  C   UNL     1     -20.992  -8.505  -1.713  1.00  0.00     0.004 A 
HETATM   24  C   UNL     1     -20.650  -9.751  -1.132  1.00  0.00     0.039 A 
HETATM   25  C   UNL     1     -21.980  -7.743  -1.054  1.00  0.00    -0.008 A 
HETATM   26  C   UNL     1     -21.275 -10.179   0.043  1.00  0.00     0.005 A 
HETATM   27  C   UNL     1     -20.867 -11.454   0.716  1.00  0.00     0.068 C 
HETATM   28  N   UNL     1     -22.256  -9.474   0.639  1.00  0.00    -0.369 N 
HETATM   29  C   UNL     1     -22.582  -8.288   0.083  1.00  0.00     0.100 A 
ATOM     30  HN  UNL     1     -22.730  -9.821   1.473  1.00  0.00     0.165 HD
HETATM   31  C   UNL     1     -22.369  -6.484  -1.540  1.00  0.00     0.014 A 
HETATM   32  C   UNL     1     -21.792  -5.956  -2.690  1.00  0.00     0.003 A 
HETATM   33  C   UNL     1     -20.856  -6.706  -3.387  1.00  0.00     0.030 A 
ENDBRANCH   1  22
TORSDOF 4
ENDMDL
MODEL 9
REMARK VINA RESULT:      -7.6      2.036      3.275
REMARK  4 active torsions:
REMARK  status: ('A' for Active; 'I' for Inactive)
REMARK    1  A    between atoms: C_5  and  N_6 
REMARK       I    between atoms: N_6  and  C_7 
REMARK       I    between atoms: C_7  and  N_9 
REMARK    2  A    between atoms: N_9  and  C_10 
REMARK    3  A    between atoms: C_12  and  C_13 
REMARK    4  A    between atoms: C_12  and  C_15 
ROOT
HETATM    1  N   UNL     1     -19.583  -9.618  -1.694  1.00  0.00    -0.308 N 
HETATM    2  C   UNL     1     -19.505  -9.756  -3.049  1.00  0.00     0.321 C 
HETATM    3  O   UNL     1     -20.430  -9.662  -3.844  1.00  0.00    -0.247 OA
HETATM    4  N   UNL     1     -18.273 -10.110  -3.504  1.00  0.00    -0.334 N 
HETATM    5  H   UNL     1     -19.013 -10.324  -1.253  1.00  0.00     0.170 HD
HETATM    6  H   UNL     1     -18.346 -10.587  -4.393  1.00  0.00     0.165 HD
ENDROOT
BRANCH   4   7
HETATM    7  C   UNL     1     -16.987 -10.117  -2.826  1.00  0.00     0.125 C 
HETATM    8  C   UNL     1     -15.763  -9.938  -3.797  1.00  0.00     0.073 C 
HETATM    9  C   UNL     1     -15.805 -11.027  -4.915  1.00  0.00     0.121 C 
HETATM   10  O   UNL     1     -16.425 -12.240  -4.398  1.00  0.00    -0.335 OA
HETATM   11  C   UNL     1     -16.163 -12.399  -3.053  1.00  0.00     0.080 C 
HETATM   12  C   UNL     1     -15.230 -13.308  -2.577  1.00  0.00     0.061 C 
HETATM   13  C   UNL     1     -16.714 -11.455  -2.180  1.00  0.00    -0.002 C 
HETATM   14  C   UNL     1     -14.972 -13.341  -1.205  1.00  0.00     0.036 C 
HETATM   15 CL   UNL     1     -13.622 -14.232  -0.612  1.00  0.00    -0.084 Cl
HETATM   16  C   UNL     1     -15.730 -12.581  -0.310  1.00  0.00     0.024 C 
HETATM   17  C   UNL     1     -16.615 -11.621  -0.798  1.00  0.00     0.013 C 
BRANCH   9  18
HETATM   18  C   UNL     1     -14.478 -11.523  -5.514  1.00  0.00     0.263 C 
HETATM   19  F   UNL     1     -14.765 -12.592  -6.329  1.00  0.00    -0.252 F 
ENDBRANCH   9  18
BRANCH   9  20
HETATM   20  C   UNL     1     -16.555 -10.398  -6.111  1.00  0.00     0.263 C 
HETATM   21  F   UNL     1     -15.969  -9.192  -6.391  1.00  0.00    -0.252 F 
ENDBRANCH   9  20
ENDBRANCH   4   7
BRANCH   1  22
HETATM   22  C   UNL     1     -20.785  -9.344  -1.002  1.00  0.00     0.047 A 
HETATM   23  C   UNL     1     -21.765 -10.330  -0.673  1.00  0.00     0.004 A 
HETATM   24  C   UNL     1     -21.627 -11.728  -0.848  1.00  0.00     0.039 A 
HETATM   25  C   UNL     1     -22.996  -9.869  -0.163  1.00  0.00    -0.008 A 
HETATM   26  C   UNL     1     -22.677 -12.590  -0.518  1.00  0.00     0.005 A 
HETATM   27  C   UNL     1     -22.519 -14.077  -0.617  1.00  0.00     0.068 C 
HETATM   28  N   UNL     1     -23.870 -12.142  -0.081  1.00  0.00    -0.369 N 
HETATM   29  C   UNL     1     -24.001 -10.809   0.083  1.00  0.00     0.100 A 
ATOM     30  HN  UNL     1     -24.640 -12.782   0.116  1.00  0.00     0.165 HD
HETATM   31  C   UNL     1     -23.220  -8.501   0.068  1.00  0.00     0.014 A 
HETATM   32  C   UNL     1     -22.232  -7.563  -0.207  1.00  0.00     0.003 A 
HETATM   33  C   UNL     1     -21.030  -7.982  -0.758  1.00  0.00     0.030 A 
ENDBRANCH   1  22
TORSDOF 4
ENDMDL
