MODEL 1
REMARK VINA RESULT:      -6.8      0.000      0.000
REMARK  24 active torsions:
REMARK  status: ('A' for Active; 'I' for Inactive)
REMARK    1  A    between atoms: N_1  and  C_2 
REMARK    2  A    between atoms: C_2  and  C_3 
REMARK    3  A    between atoms: C_3  and  C_4 
REMARK    4  A    between atoms: C_4  and  N_5 
REMARK    5  A    between atoms: N_5  and  C_6 
REMARK    6  A    between atoms: C_6  and  C_7 
REMARK    7  A    between atoms: C_7  and  C_8 
REMARK    8  A    between atoms: C_8  and  C_9 
REMARK    9  A    between atoms: C_9  and  N_10 
REMARK   10  A    between atoms: N_10  and  C_11 
REMARK   11  A    between atoms: C_11  and  C_12 
REMARK   12  A    between atoms: C_12  and  C_13 
REMARK   13  A    between atoms: C_13  and  N_14 
REMARK   14  A    between atoms: N_14  and  C_15 
REMARK   15  A    between atoms: C_15  and  C_16 
REMARK   16  A    between atoms: C_16  and  C_17 
REMARK   17  A    between atoms: C_17  and  N_18 
REMARK   18  A    between atoms: N_18  and  O_19 
REMARK   19  A    between atoms: N_18  and  C_20 
REMARK   20  A    between atoms: C_20  and  C_21 
REMARK   21  A    between atoms: C_21  and  C_22 
REMARK   22  A    between atoms: C_22  and  N_23 
REMARK       I    between atoms: N_23  and  C_24 
REMARK   23  A    between atoms: C_24  and  C_26 
REMARK   24  A    between atoms: C_26  and  C_27 
ROOT
HETATM    1  C   UNL     1     -33.407  -4.216 -15.928  1.00  0.00     0.122 C 
ENDROOT
BRANCH   1   2
HETATM    2  C   UNL     1     -32.077  -4.668 -16.516  1.00  0.00     0.046 C 
BRANCH   2   3
HETATM    3  C   UNL     1     -32.255  -6.039 -17.143  1.00  0.00     0.270 C 
BRANCH   3   4
HETATM    4  N   UNL     1     -30.988  -6.750 -17.064  1.00  0.00     0.083 N 
HETATM    5  H   UNL     1     -30.589  -6.658 -16.132  1.00  0.00     0.315 HD
BRANCH   4   6
HETATM    6  C   UNL     1     -30.061  -6.228 -18.061  1.00  0.00     0.271 C 
BRANCH   6   7
HETATM    7  C   UNL     1     -28.647  -6.674 -17.718  1.00  0.00     0.060 C 
BRANCH   7   8
HETATM    8  C   UNL     1     -28.617  -7.089 -16.254  1.00  0.00     0.271 C 
BRANCH   8   9
HETATM    9  N   UNL     1     -27.257  -7.405 -15.859  1.00  0.00     0.083 N 
HETATM   10  H   UNL     1     -27.207  -7.608 -14.862  1.00  0.00     0.315 HD
BRANCH   9  11
HETATM   11  C   UNL     1     -26.354  -6.319 -16.211  1.00  0.00     0.269 C 
BRANCH  11  12
HETATM   12  C   UNL     1     -24.986  -6.590 -15.612  1.00  0.00     0.032 C 
BRANCH  12  13
HETATM   13  C   UNL     1     -24.172  -7.578 -16.461  1.00  0.00     0.032 C 
BRANCH  13  14
HETATM   14  C   UNL     1     -23.039  -6.889 -17.207  1.00  0.00     0.269 C 
BRANCH  14  15
HETATM   15  N   UNL     1     -22.993  -7.365 -18.585  1.00  0.00     0.083 N 
HETATM   16  H   UNL     1     -22.163  -6.994 -19.039  1.00  0.00     0.315 HD
BRANCH  15  17
HETATM   17  C   UNL     1     -24.172  -6.941 -19.315  1.00  0.00     0.271 C 
BRANCH  17  18
HETATM   18  C   UNL     1     -24.580  -8.002 -20.329  1.00  0.00     0.059 C 
BRANCH  18  19
HETATM   19  C   UNL     1     -24.881  -7.338 -21.667  1.00  0.00     0.268 C 
BRANCH  19  20
HETATM   20  N   UNL     1     -23.844  -7.676 -22.632  1.00  0.00     0.078 N 
HETATM   21  H   UNL     1     -23.108  -6.973 -22.615  1.00  0.00     0.312 HD
HETATM   22  H   UNL     1     -24.249  -7.706 -23.568  1.00  0.00     0.312 HD
ENDBRANCH  19  20
ENDBRANCH  18  19
ENDBRANCH  17  18
ENDBRANCH  15  17
ENDBRANCH  14  15
ENDBRANCH  13  14
ENDBRANCH  12  13
ENDBRANCH  11  12
ENDBRANCH   9  11
ENDBRANCH   8   9
ENDBRANCH   7   8
ENDBRANCH   6   7
ENDBRANCH   4   6
ENDBRANCH   3   4
ENDBRANCH   2   3
ENDBRANCH   1   2
BRANCH   1  23
HETATM   23  N   UNL     1     -33.782  -2.888 -16.425  1.00  0.00    -0.200 NA
BRANCH  23  24
HETATM   24  O   UNL     1     -33.479  -2.887 -17.849  1.00  0.00    -0.313 OA
HETATM   25  H   UNL     1     -32.603  -3.322 -17.854  1.00  0.00     0.237 HD
ENDBRANCH  23  24
BRANCH  23  26
HETATM   26  C   UNL     1     -35.238  -2.685 -16.337  1.00  0.00     0.122 C 
BRANCH  26  27
HETATM   27  C   UNL     1     -35.697  -1.345 -16.927  1.00  0.00     0.036 C 
BRANCH  27  28
HETATM   28  C   UNL     1     -35.895  -0.313 -15.831  1.00  0.00     0.123 C 
BRANCH  28  29
HETATM   29  N   UNL     1     -35.037  -0.581 -14.648  1.00  0.00    -0.361 N 
HETATM   30  C   UNL     1     -35.449  -0.275 -13.364  1.00  0.00     0.221 C 
HETATM   31  O   UNL     1     -36.557   0.227 -13.157  1.00  0.00    -0.273 OA
HETATM   32  H   UNL     1     -34.094  -0.916 -14.792  1.00  0.00     0.162 HD
BRANCH  30  33
HETATM   33  C   UNL     1     -34.509  -0.604 -12.170  1.00  0.00     0.143 C 
BRANCH  33  34
HETATM   34  C   UNL     1     -34.925  -1.899 -11.533  1.00  0.00    -0.022 A 
HETATM   35  C   UNL     1     -36.088  -2.069 -10.821  1.00  0.00     0.097 A 
HETATM   36  N   UNL     1     -36.240  -3.401 -10.513  1.00  0.00    -0.365 N 
HETATM   37  C   UNL     1     -35.111  -4.089 -10.901  1.00  0.00     0.042 A 
HETATM   38  H   UNL     1     -37.020  -3.807 -10.015  1.00  0.00     0.165 HD
HETATM   39  C   UNL     1     -34.707  -5.410 -10.675  1.00  0.00     0.030 A 
HETATM   40  C   UNL     1     -34.278  -3.156 -11.526  1.00  0.00    -0.001 A 
HETATM   41  C   UNL     1     -33.438  -5.769 -11.116  1.00  0.00     0.002 A 
HETATM   42  C   UNL     1     -32.614  -4.870 -11.759  1.00  0.00     0.001 A 
HETATM   43  C   UNL     1     -33.035  -3.577 -11.992  1.00  0.00     0.014 A 
ENDBRANCH  33  34
ENDBRANCH  30  33
ENDBRANCH  28  29
ENDBRANCH  27  28
ENDBRANCH  26  27
ENDBRANCH  23  26
ENDBRANCH   1  23
TORSDOF 24
ENDMDL
MODEL 2
REMARK VINA RESULT:      -6.8      2.287     11.332
REMARK  24 active torsions:
REMARK  status: ('A' for Active; 'I' for Inactive)
REMARK    1  A    between atoms: N_1  and  C_2 
REMARK    2  A    between atoms: C_2  and  C_3 
REMARK    3  A    between atoms: C_3  and  C_4 
REMARK    4  A    between atoms: C_4  and  N_5 
REMARK    5  A    between atoms: N_5  and  C_6 
REMARK    6  A    between atoms: C_6  and  C_7 
REMARK    7  A    between atoms: C_7  and  C_8 
REMARK    8  A    between atoms: C_8  and  C_9 
REMARK    9  A    between atoms: C_9  and  N_10 
REMARK   10  A    between atoms: N_10  and  C_11 
REMARK   11  A    between atoms: C_11  and  C_12 
REMARK   12  A    between atoms: C_12  and  C_13 
REMARK   13  A    between atoms: C_13  and  N_14 
REMARK   14  A    between atoms: N_14  and  C_15 
REMARK   15  A    between atoms: C_15  and  C_16 
REMARK   16  A    between atoms: C_16  and  C_17 
REMARK   17  A    between atoms: C_17  and  N_18 
REMARK   18  A    between atoms: N_18  and  O_19 
REMARK   19  A    between atoms: N_18  and  C_20 
REMARK   20  A    between atoms: C_20  and  C_21 
REMARK   21  A    between atoms: C_21  and  C_22 
REMARK   22  A    between atoms: C_22  and  N_23 
REMARK       I    between atoms: N_23  and  C_24 
REMARK   23  A    between atoms: C_24  and  C_26 
REMARK   24  A    between atoms: C_26  and  C_27 
ROOT
HETATM    1  C   UNL     1     -31.289  -5.514 -17.123  1.00  0.00     0.122 C 
ENDROOT
BRANCH   1   2
HETATM    2  C   UNL     1     -31.435  -4.008 -17.289  1.00  0.00     0.046 C 
BRANCH   2   3
HETATM    3  C   UNL     1     -32.912  -3.660 -17.349  1.00  0.00     0.270 C 
BRANCH   3   4
HETATM    4  N   UNL     1     -33.542  -4.112 -16.119  1.00  0.00     0.083 N 
HETATM    5  H   UNL     1     -33.800  -5.094 -16.194  1.00  0.00     0.315 HD
BRANCH   4   6
HETATM    6  C   UNL     1     -34.723  -3.304 -15.837  1.00  0.00     0.271 C 
BRANCH   6   7
HETATM    7  C   UNL     1     -34.896  -2.262 -16.933  1.00  0.00     0.060 C 
BRANCH   7   8
HETATM    8  C   UNL     1     -35.485  -1.005 -16.309  1.00  0.00     0.271 C 
BRANCH   8   9
HETATM    9  N   UNL     1     -35.102  -0.923 -14.911  1.00  0.00     0.083 N 
HETATM   10  H   UNL     1     -35.573  -1.642 -14.364  1.00  0.00     0.315 HD
BRANCH   9  11
HETATM   11  C   UNL     1     -35.386   0.401 -14.377  1.00  0.00     0.269 C 
BRANCH  11  12
HETATM   12  C   UNL     1     -35.074   0.419 -12.891  1.00  0.00     0.032 C 
BRANCH  12  13
HETATM   13  C   UNL     1     -34.967  -0.997 -12.310  1.00  0.00     0.032 C 
BRANCH  13  14
HETATM   14  C   UNL     1     -36.019  -1.257 -11.242  1.00  0.00     0.269 C 
BRANCH  14  15
HETATM   15  N   UNL     1     -35.801  -2.567 -10.640  1.00  0.00     0.083 N 
HETATM   16  H   UNL     1     -35.369  -2.448  -9.728  1.00  0.00     0.315 HD
BRANCH  15  17
HETATM   17  C   UNL     1     -34.941  -3.381 -11.478  1.00  0.00     0.271 C 
BRANCH  17  18
HETATM   18  C   UNL     1     -33.857  -4.047 -10.640  1.00  0.00     0.059 C 
BRANCH  18  19
HETATM   19  C   UNL     1     -33.458  -5.370 -11.282  1.00  0.00     0.268 C 
BRANCH  19  20
HETATM   20  N   UNL     1     -34.554  -5.876 -12.097  1.00  0.00     0.078 N 
HETATM   21  H   UNL     1     -35.446  -5.659 -11.658  1.00  0.00     0.312 HD
HETATM   22  H   UNL     1     -34.469  -6.888 -12.188  1.00  0.00     0.312 HD
ENDBRANCH  19  20
ENDBRANCH  18  19
ENDBRANCH  17  18
ENDBRANCH  15  17
ENDBRANCH  14  15
ENDBRANCH  13  14
ENDBRANCH  12  13
ENDBRANCH  11  12
ENDBRANCH   9  11
ENDBRANCH   8   9
ENDBRANCH   7   8
ENDBRANCH   6   7
ENDBRANCH   4   6
ENDBRANCH   3   4
ENDBRANCH   2   3
ENDBRANCH   1   2
BRANCH   1  23
HETATM   23  N   UNL     1     -29.878  -5.899 -16.995  1.00  0.00    -0.200 NA
BRANCH  23  24
HETATM   24  O   UNL     1     -29.523  -5.681 -15.600  1.00  0.00    -0.313 OA
HETATM   25  H   UNL     1     -30.117  -4.939 -15.369  1.00  0.00     0.237 HD
ENDBRANCH  23  24
BRANCH  23  26
HETATM   26  C   UNL     1     -29.705  -7.343 -17.220  1.00  0.00     0.122 C 
BRANCH  26  27
HETATM   27  C   UNL     1     -30.385  -7.840 -18.503  1.00  0.00     0.036 C 
BRANCH  27  28
HETATM   28  C   UNL     1     -29.356  -8.358 -19.493  1.00  0.00     0.123 C 
BRANCH  28  29
HETATM   29  N   UNL     1     -28.187  -7.449 -19.612  1.00  0.00    -0.361 N 
HETATM   30  C   UNL     1     -27.214  -7.635 -20.576  1.00  0.00     0.221 C 
HETATM   31  O   UNL     1     -27.291  -8.567 -21.382  1.00  0.00    -0.273 OA
HETATM   32  H   UNL     1     -28.054  -6.727 -18.917  1.00  0.00     0.162 HD
BRANCH  30  33
HETATM   33  C   UNL     1     -26.028  -6.633 -20.658  1.00  0.00     0.143 C 
BRANCH  33  34
HETATM   34  C   UNL     1     -25.022  -6.941 -19.586  1.00  0.00    -0.022 A 
HETATM   35  C   UNL     1     -23.765  -7.440 -19.829  1.00  0.00     0.097 A 
HETATM   36  N   UNL     1     -23.050  -7.458 -18.653  1.00  0.00    -0.365 N 
HETATM   37  C   UNL     1     -23.878  -7.102 -17.612  1.00  0.00     0.042 A 
HETATM   38  H   UNL     1     -22.090  -7.755 -18.552  1.00  0.00     0.165 HD
HETATM   39  C   UNL     1     -23.684  -7.118 -16.225  1.00  0.00     0.030 A 
HETATM   40  C   UNL     1     -25.116  -6.792 -18.183  1.00  0.00    -0.001 A 
HETATM   41  C   UNL     1     -24.776  -6.794 -15.428  1.00  0.00     0.002 A 
HETATM   42  C   UNL     1     -25.997  -6.459 -15.975  1.00  0.00     0.001 A 
HETATM   43  C   UNL     1     -26.166  -6.427 -17.344  1.00  0.00     0.014 A 
ENDBRANCH  33  34
ENDBRANCH  30  33
ENDBRANCH  28  29
ENDBRANCH  27  28
ENDBRANCH  26  27
ENDBRANCH  23  26
ENDBRANCH   1  23
TORSDOF 24
ENDMDL
MODEL 3
REMARK VINA RESULT:      -6.6      2.487     12.148
REMARK  24 active torsions:
REMARK  status: ('A' for Active; 'I' for Inactive)
REMARK    1  A    between atoms: N_1  and  C_2 
REMARK    2  A    between atoms: C_2  and  C_3 
REMARK    3  A    between atoms: C_3  and  C_4 
REMARK    4  A    between atoms: C_4  and  N_5 
REMARK    5  A    between atoms: N_5  and  C_6 
REMARK    6  A    between atoms: C_6  and  C_7 
REMARK    7  A    between atoms: C_7  and  C_8 
REMARK    8  A    between atoms: C_8  and  C_9 
REMARK    9  A    between atoms: C_9  and  N_10 
REMARK   10  A    between atoms: N_10  and  C_11 
REMARK   11  A    between atoms: C_11  and  C_12 
REMARK   12  A    between atoms: C_12  and  C_13 
REMARK   13  A    between atoms: C_13  and  N_14 
REMARK   14  A    between atoms: N_14  and  C_15 
REMARK   15  A    between atoms: C_15  and  C_16 
REMARK   16  A    between atoms: C_16  and  C_17 
REMARK   17  A    between atoms: C_17  and  N_18 
REMARK   18  A    between atoms: N_18  and  O_19 
REMARK   19  A    between atoms: N_18  and  C_20 
REMARK   20  A    between atoms: C_20  and  C_21 
REMARK   21  A    between atoms: C_21  and  C_22 
REMARK   22  A    between atoms: C_22  and  N_23 
REMARK       I    between atoms: N_23  and  C_24 
REMARK   23  A    between atoms: C_24  and  C_26 
REMARK   24  A    between atoms: C_26  and  C_27 
ROOT
HETATM    1  C   UNL     1     -30.699  -5.875 -16.886  1.00  0.00     0.122 C 
ENDROOT
BRANCH   1   2
HETATM    2  C   UNL     1     -31.277  -4.468 -16.932  1.00  0.00     0.046 C 
BRANCH   2   3
HETATM    3  C   UNL     1     -32.793  -4.556 -16.938  1.00  0.00     0.270 C 
BRANCH   3   4
HETATM    4  N   UNL     1     -33.281  -4.180 -15.620  1.00  0.00     0.083 N 
HETATM    5  H   UNL     1     -33.321  -4.996 -15.012  1.00  0.00     0.315 HD
BRANCH   4   6
HETATM    6  C   UNL     1     -34.603  -3.574 -15.732  1.00  0.00     0.271 C 
BRANCH   6   7
HETATM    7  C   UNL     1     -34.623  -2.622 -16.920  1.00  0.00     0.060 C 
BRANCH   7   8
HETATM    8  C   UNL     1     -35.281  -1.322 -16.479  1.00  0.00     0.271 C 
BRANCH   8   9
HETATM    9  N   UNL     1     -35.137  -1.159 -15.044  1.00  0.00     0.083 N 
HETATM   10  H   UNL     1     -35.580  -1.929 -14.546  1.00  0.00     0.315 HD
BRANCH   9  11
HETATM   11  C   UNL     1     -35.685   0.119 -14.614  1.00  0.00     0.269 C 
BRANCH  11  12
HETATM   12  C   UNL     1     -34.944   0.591 -13.376  1.00  0.00     0.032 C 
BRANCH  12  13
HETATM   13  C   UNL     1     -35.751   0.343 -12.093  1.00  0.00     0.032 C 
BRANCH  13  14
HETATM   14  C   UNL     1     -35.851  -1.138 -11.761  1.00  0.00     0.269 C 
BRANCH  14  15
HETATM   15  N   UNL     1     -34.514  -1.710 -11.640  1.00  0.00     0.083 N 
HETATM   16  H   UNL     1     -33.883  -1.220 -12.269  1.00  0.00     0.315 HD
BRANCH  15  17
HETATM   17  C   UNL     1     -34.526  -3.122 -11.974  1.00  0.00     0.271 C 
BRANCH  17  18
HETATM   18  C   UNL     1     -33.323  -3.824 -11.360  1.00  0.00     0.059 C 
BRANCH  18  19
HETATM   19  C   UNL     1     -33.775  -5.114 -10.687  1.00  0.00     0.268 C 
BRANCH  19  20
HETATM   20  N   UNL     1     -34.222  -6.067 -11.693  1.00  0.00     0.078 N 
HETATM   21  H   UNL     1     -33.484  -6.737 -11.894  1.00  0.00     0.312 HD
HETATM   22  H   UNL     1     -34.457  -5.568 -12.551  1.00  0.00     0.312 HD
ENDBRANCH  19  20
ENDBRANCH  18  19
ENDBRANCH  17  18
ENDBRANCH  15  17
ENDBRANCH  14  15
ENDBRANCH  13  14
ENDBRANCH  12  13
ENDBRANCH  11  12
ENDBRANCH   9  11
ENDBRANCH   8   9
ENDBRANCH   7   8
ENDBRANCH   6   7
ENDBRANCH   4   6
ENDBRANCH   3   4
ENDBRANCH   2   3
ENDBRANCH   1   2
BRANCH   1  23
HETATM   23  N   UNL     1     -29.858  -6.142 -18.058  1.00  0.00    -0.200 NA
BRANCH  23  24
HETATM   24  O   UNL     1     -29.615  -4.850 -18.685  1.00  0.00    -0.313 OA
HETATM   25  H   UNL     1     -29.192  -5.126 -19.524  1.00  0.00     0.237 HD
ENDBRANCH  23  24
BRANCH  23  26
HETATM   26  C   UNL     1     -28.531  -6.634 -17.653  1.00  0.00     0.122 C 
BRANCH  26  27
HETATM   27  C   UNL     1     -28.323  -6.623 -16.132  1.00  0.00     0.036 C 
BRANCH  27  28
HETATM   28  C   UNL     1     -26.936  -7.128 -15.774  1.00  0.00     0.123 C 
BRANCH  28  29
HETATM   29  N   UNL     1     -25.907  -6.668 -16.742  1.00  0.00    -0.361 N 
HETATM   30  C   UNL     1     -24.687  -7.306 -16.866  1.00  0.00     0.221 C 
HETATM   31  O   UNL     1     -24.415  -8.294 -16.178  1.00  0.00    -0.273 OA
HETATM   32  H   UNL     1     -26.067  -5.815 -17.261  1.00  0.00     0.162 HD
BRANCH  30  33
HETATM   33  C   UNL     1     -23.664  -6.785 -17.915  1.00  0.00     0.143 C 
BRANCH  33  34
HETATM   34  C   UNL     1     -24.131  -7.130 -19.301  1.00  0.00    -0.022 A 
HETATM   35  C   UNL     1     -25.404  -6.902 -19.764  1.00  0.00     0.097 A 
HETATM   36  N   UNL     1     -25.454  -7.185 -21.110  1.00  0.00    -0.365 N 
HETATM   37  C   UNL     1     -24.252  -7.730 -21.504  1.00  0.00     0.042 A 
HETATM   38  H   UNL     1     -26.264  -7.080 -21.705  1.00  0.00     0.165 HD
HETATM   39  C   UNL     1     -23.853  -8.321 -22.710  1.00  0.00     0.030 A 
HETATM   40  C   UNL     1     -23.425  -7.714 -20.377  1.00  0.00    -0.001 A 
HETATM   41  C   UNL     1     -22.582  -8.882 -22.750  1.00  0.00     0.002 A 
HETATM   42  C   UNL     1     -21.742  -8.850 -21.657  1.00  0.00     0.001 A 
HETATM   43  C   UNL     1     -22.142  -8.246 -20.483  1.00  0.00     0.014 A 
ENDBRANCH  33  34
ENDBRANCH  30  33
ENDBRANCH  28  29
ENDBRANCH  27  28
ENDBRANCH  26  27
ENDBRANCH  23  26
ENDBRANCH   1  23
TORSDOF 24
ENDMDL
MODEL 4
REMARK VINA RESULT:      -6.5      1.033      2.463
REMARK  24 active torsions:
REMARK  status: ('A' for Active; 'I' for Inactive)
REMARK    1  A    between atoms: N_1  and  C_2 
REMARK    2  A    between atoms: C_2  and  C_3 
REMARK    3  A    between atoms: C_3  and  C_4 
REMARK    4  A    between atoms: C_4  and  N_5 
REMARK    5  A    between atoms: N_5  and  C_6 
REMARK    6  A    between atoms: C_6  and  C_7 
REMARK    7  A    between atoms: C_7  and  C_8 
REMARK    8  A    between atoms: C_8  and  C_9 
REMARK    9  A    between atoms: C_9  and  N_10 
REMARK   10  A    between atoms: N_10  and  C_11 
REMARK   11  A    between atoms: C_11  and  C_12 
REMARK   12  A    between atoms: C_12  and  C_13 
REMARK   13  A    between atoms: C_13  and  N_14 
REMARK   14  A    between atoms: N_14  and  C_15 
REMARK   15  A    between atoms: C_15  and  C_16 
REMARK   16  A    between atoms: C_16  and  C_17 
REMARK   17  A    between atoms: C_17  and  N_18 
REMARK   18  A    between atoms: N_18  and  O_19 
REMARK   19  A    between atoms: N_18  and  C_20 
REMARK   20  A    between atoms: C_20  and  C_21 
REMARK   21  A    between atoms: C_21  and  C_22 
REMARK   22  A    between atoms: C_22  and  N_23 
REMARK       I    between atoms: N_23  and  C_24 
REMARK   23  A    between atoms: C_24  and  C_26 
REMARK   24  A    between atoms: C_26  and  C_27 
ROOT
HETATM    1  C   UNL     1     -34.342  -4.071 -15.879  1.00  0.00     0.122 C 
ENDROOT
BRANCH   1   2
HETATM    2  C   UNL     1     -32.922  -4.500 -15.537  1.00  0.00     0.046 C 
BRANCH   2   3
HETATM    3  C   UNL     1     -32.134  -4.668 -16.824  1.00  0.00     0.270 C 
BRANCH   3   4
HETATM    4  N   UNL     1     -31.852  -6.083 -17.010  1.00  0.00     0.083 N 
HETATM    5  H   UNL     1     -32.408  -6.642 -16.365  1.00  0.00     0.315 HD
BRANCH   4   6
HETATM    6  C   UNL     1     -30.432  -6.341 -16.801  1.00  0.00     0.271 C 
BRANCH   6   7
HETATM    7  C   UNL     1     -29.704  -6.272 -18.135  1.00  0.00     0.060 C 
BRANCH   7   8
HETATM    8  C   UNL     1     -29.461  -7.693 -18.621  1.00  0.00     0.271 C 
BRANCH   8   9
HETATM    9  N   UNL     1     -28.326  -7.717 -19.525  1.00  0.00     0.083 N 
HETATM   10  H   UNL     1     -27.705  -8.495 -19.306  1.00  0.00     0.315 HD
BRANCH   9  11
HETATM   11  C   UNL     1     -27.606  -6.452 -19.481  1.00  0.00     0.269 C 
BRANCH  11  12
HETATM   12  C   UNL     1     -26.608  -6.404 -20.623  1.00  0.00     0.032 C 
BRANCH  12  13
HETATM   13  C   UNL     1     -25.398  -7.315 -20.369  1.00  0.00     0.032 C 
BRANCH  13  14
HETATM   14  C   UNL     1     -24.407  -6.688 -19.400  1.00  0.00     0.269 C 
BRANCH  14  15
HETATM   15  N   UNL     1     -24.018  -7.665 -18.389  1.00  0.00     0.083 N 
HETATM   16  H   UNL     1     -24.802  -8.286 -18.206  1.00  0.00     0.315 HD
BRANCH  15  17
HETATM   17  C   UNL     1     -23.630  -7.003 -17.157  1.00  0.00     0.271 C 
BRANCH  17  18
HETATM   18  C   UNL     1     -24.501  -7.477 -16.001  1.00  0.00     0.059 C 
BRANCH  18  19
HETATM   19  C   UNL     1     -25.677  -6.524 -15.826  1.00  0.00     0.268 C 
BRANCH  19  20
HETATM   20  N   UNL     1     -26.930  -7.258 -15.938  1.00  0.00     0.078 N 
HETATM   21  H   UNL     1     -26.762  -8.181 -16.330  1.00  0.00     0.312 HD
HETATM   22  H   UNL     1     -27.566  -6.749 -16.552  1.00  0.00     0.312 HD
ENDBRANCH  19  20
ENDBRANCH  18  19
ENDBRANCH  17  18
ENDBRANCH  15  17
ENDBRANCH  14  15
ENDBRANCH  13  14
ENDBRANCH  12  13
ENDBRANCH  11  12
ENDBRANCH   9  11
ENDBRANCH   8   9
ENDBRANCH   7   8
ENDBRANCH   6   7
ENDBRANCH   4   6
ENDBRANCH   3   4
ENDBRANCH   2   3
ENDBRANCH   1   2
BRANCH   1  23
HETATM   23  N   UNL     1     -34.391  -2.656 -16.263  1.00  0.00    -0.200 NA
BRANCH  23  24
HETATM   24  O   UNL     1     -34.013  -2.603 -17.668  1.00  0.00    -0.313 OA
HETATM   25  H   UNL     1     -33.577  -1.728 -17.711  1.00  0.00     0.237 HD
ENDBRANCH  23  24
BRANCH  23  26
HETATM   26  C   UNL     1     -35.771  -2.145 -16.212  1.00  0.00     0.122 C 
BRANCH  26  27
HETATM   27  C   UNL     1     -35.906  -0.718 -16.761  1.00  0.00     0.036 C 
BRANCH  27  28
HETATM   28  C   UNL     1     -36.064   0.283 -15.629  1.00  0.00     0.123 C 
BRANCH  28  29
HETATM   29  N   UNL     1     -35.180  -0.031 -14.478  1.00  0.00    -0.361 N 
HETATM   30  C   UNL     1     -35.669  -0.127 -13.188  1.00  0.00     0.221 C 
HETATM   31  O   UNL     1     -36.869   0.036 -12.951  1.00  0.00    -0.273 OA
HETATM   32  H   UNL     1     -34.181  -0.091 -14.627  1.00  0.00     0.162 HD
BRANCH  30  33
HETATM   33  C   UNL     1     -34.691  -0.481 -12.032  1.00  0.00     0.143 C 
BRANCH  33  34
HETATM   34  C   UNL     1     -35.059  -1.811 -11.439  1.00  0.00    -0.022 A 
HETATM   35  C   UNL     1     -36.209  -2.043 -10.723  1.00  0.00     0.097 A 
HETATM   36  N   UNL     1     -36.315  -3.390 -10.462  1.00  0.00    -0.365 N 
HETATM   37  C   UNL     1     -35.170  -4.027 -10.885  1.00  0.00     0.042 A 
HETATM   38  H   UNL     1     -37.078  -3.837  -9.972  1.00  0.00     0.165 HD
HETATM   39  C   UNL     1     -34.721  -5.342 -10.710  1.00  0.00     0.030 A 
HETATM   40  C   UNL     1     -34.373  -3.046 -11.483  1.00  0.00    -0.001 A 
HETATM   41  C   UNL     1     -33.447  -5.644 -11.175  1.00  0.00     0.002 A 
HETATM   42  C   UNL     1     -32.658  -4.696 -11.793  1.00  0.00     0.001 A 
HETATM   43  C   UNL     1     -33.122  -3.410 -11.975  1.00  0.00     0.014 A 
ENDBRANCH  33  34
ENDBRANCH  30  33
ENDBRANCH  28  29
ENDBRANCH  27  28
ENDBRANCH  26  27
ENDBRANCH  23  26
ENDBRANCH   1  23
TORSDOF 24
ENDMDL
MODEL 5
REMARK VINA RESULT:      -6.4     14.417     18.962
REMARK  24 active torsions:
REMARK  status: ('A' for Active; 'I' for Inactive)
REMARK    1  A    between atoms: N_1  and  C_2 
REMARK    2  A    between atoms: C_2  and  C_3 
REMARK    3  A    between atoms: C_3  and  C_4 
REMARK    4  A    between atoms: C_4  and  N_5 
REMARK    5  A    between atoms: N_5  and  C_6 
REMARK    6  A    between atoms: C_6  and  C_7 
REMARK    7  A    between atoms: C_7  and  C_8 
REMARK    8  A    between atoms: C_8  and  C_9 
REMARK    9  A    between atoms: C_9  and  N_10 
REMARK   10  A    between atoms: N_10  and  C_11 
REMARK   11  A    between atoms: C_11  and  C_12 
REMARK   12  A    between atoms: C_12  and  C_13 
REMARK   13  A    between atoms: C_13  and  N_14 
REMARK   14  A    between atoms: N_14  and  C_15 
REMARK   15  A    between atoms: C_15  and  C_16 
REMARK   16  A    between atoms: C_16  and  C_17 
REMARK   17  A    between atoms: C_17  and  N_18 
REMARK   18  A    between atoms: N_18  and  O_19 
REMARK   19  A    between atoms: N_18  and  C_20 
REMARK   20  A    between atoms: C_20  and  C_21 
REMARK   21  A    between atoms: C_21  and  C_22 
REMARK   22  A    between atoms: C_22  and  N_23 
REMARK       I    between atoms: N_23  and  C_24 
REMARK   23  A    between atoms: C_24  and  C_26 
REMARK   24  A    between atoms: C_26  and  C_27 
ROOT
HETATM    1  C   UNL     1     -20.480 -12.200  -1.433  1.00  0.00     0.122 C 
ENDROOT
BRANCH   1   2
HETATM    2  C   UNL     1     -19.782 -11.129  -0.607  1.00  0.00     0.046 C 
BRANCH   2   3
HETATM    3  C   UNL     1     -20.573 -10.894   0.667  1.00  0.00     0.270 C 
BRANCH   3   4
HETATM    4  N   UNL     1     -21.772 -10.142   0.333  1.00  0.00     0.083 N 
HETATM    5  H   UNL     1     -22.058 -10.340  -0.625  1.00  0.00     0.315 HD
BRANCH   4   6
HETATM    6  C   UNL     1     -21.528  -8.714   0.497  1.00  0.00     0.271 C 
BRANCH   6   7
HETATM    7  C   UNL     1     -22.753  -7.935   0.041  1.00  0.00     0.060 C 
BRANCH   7   8
HETATM    8  C   UNL     1     -22.300  -6.865  -0.942  1.00  0.00     0.271 C 
BRANCH   8   9
HETATM    9  N   UNL     1     -21.672  -7.488  -2.093  1.00  0.00     0.083 N 
HETATM   10  H   UNL     1     -20.765  -7.878  -1.842  1.00  0.00     0.315 HD
BRANCH   9  11
HETATM   11  C   UNL     1     -21.541  -6.535  -3.186  1.00  0.00     0.269 C 
BRANCH  11  12
HETATM   12  C   UNL     1     -21.545  -7.284  -4.506  1.00  0.00     0.032 C 
BRANCH  12  13
HETATM   13  C   UNL     1     -20.466  -6.763  -5.466  1.00  0.00     0.032 C 
BRANCH  13  14
HETATM   14  C   UNL     1     -21.067  -6.036  -6.660  1.00  0.00     0.269 C 
BRANCH  14  15
HETATM   15  N   UNL     1     -20.729  -4.619  -6.598  1.00  0.00     0.083 N 
HETATM   16  H   UNL     1     -20.937  -4.266  -5.667  1.00  0.00     0.315 HD
BRANCH  15  17
HETATM   17  C   UNL     1     -21.488  -3.866  -7.579  1.00  0.00     0.271 C 
BRANCH  17  18
HETATM   18  C   UNL     1     -21.083  -4.271  -8.990  1.00  0.00     0.059 C 
BRANCH  18  19
HETATM   19  C   UNL     1     -22.118  -3.759  -9.984  1.00  0.00     0.268 C 
BRANCH  19  20
HETATM   20  N   UNL     1     -23.091  -4.804 -10.269  1.00  0.00     0.078 N 
HETATM   21  H   UNL     1     -22.705  -5.715 -10.034  1.00  0.00     0.312 HD
HETATM   22  H   UNL     1     -23.322  -4.789 -11.263  1.00  0.00     0.312 HD
ENDBRANCH  19  20
ENDBRANCH  18  19
ENDBRANCH  17  18
ENDBRANCH  15  17
ENDBRANCH  14  15
ENDBRANCH  13  14
ENDBRANCH  12  13
ENDBRANCH  11  12
ENDBRANCH   9  11
ENDBRANCH   8   9
ENDBRANCH   7   8
ENDBRANCH   6   7
ENDBRANCH   4   6
ENDBRANCH   3   4
ENDBRANCH   2   3
ENDBRANCH   1   2
BRANCH   1  23
HETATM   23  N   UNL     1     -21.260 -11.605  -2.525  1.00  0.00    -0.200 NA
BRANCH  23  24
HETATM   24  O   UNL     1     -20.704 -10.277  -2.743  1.00  0.00    -0.313 OA
HETATM   25  H   UNL     1     -20.846  -9.868  -1.865  1.00  0.00     0.237 HD
ENDBRANCH  23  24
BRANCH  23  26
HETATM   26  C   UNL     1     -21.038 -12.331  -3.786  1.00  0.00     0.122 C 
BRANCH  26  27
HETATM   27  C   UNL     1     -22.002 -11.907  -4.903  1.00  0.00     0.036 C 
BRANCH  27  28
HETATM   28  C   UNL     1     -21.243 -11.289  -6.064  1.00  0.00     0.123 C 
BRANCH  28  29
HETATM   29  N   UNL     1     -20.130 -10.418  -5.605  1.00  0.00    -0.361 N 
HETATM   30  C   UNL     1     -18.862 -10.507  -6.151  1.00  0.00     0.221 C 
HETATM   31  O   UNL     1     -18.615 -11.312  -7.052  1.00  0.00    -0.273 OA
HETATM   32  H   UNL     1     -20.280  -9.806  -4.814  1.00  0.00     0.162 HD
BRANCH  30  33
HETATM   33  C   UNL     1     -17.750  -9.549  -5.638  1.00  0.00     0.143 C 
BRANCH  33  34
HETATM   34  C   UNL     1     -16.933 -10.235  -4.579  1.00  0.00    -0.022 A 
HETATM   35  C   UNL     1     -17.194 -10.154  -3.232  1.00  0.00     0.097 A 
HETATM   36  N   UNL     1     -16.362 -11.018  -2.558  1.00  0.00    -0.365 N 
HETATM   37  C   UNL     1     -15.461 -11.566  -3.443  1.00  0.00     0.042 A 
HETATM   38  H   UNL     1     -16.359 -11.175  -1.559  1.00  0.00     0.165 HD
HETATM   39  C   UNL     1     -14.329 -12.365  -3.240  1.00  0.00     0.030 A 
HETATM   40  C   UNL     1     -15.801 -11.071  -4.706  1.00  0.00    -0.001 A 
HETATM   41  C   UNL     1     -13.556 -12.665  -4.355  1.00  0.00     0.002 A 
HETATM   42  C   UNL     1     -13.892 -12.209  -5.612  1.00  0.00     0.001 A 
HETATM   43  C   UNL     1     -15.021 -11.440  -5.799  1.00  0.00     0.014 A 
ENDBRANCH  33  34
ENDBRANCH  30  33
ENDBRANCH  28  29
ENDBRANCH  27  28
ENDBRANCH  26  27
ENDBRANCH  23  26
ENDBRANCH   1  23
TORSDOF 24
ENDMDL
MODEL 6
REMARK VINA RESULT:      -6.4     14.183     18.192
REMARK  24 active torsions:
REMARK  status: ('A' for Active; 'I' for Inactive)
REMARK    1  A    between atoms: N_1  and  C_2 
REMARK    2  A    between atoms: C_2  and  C_3 
REMARK    3  A    between atoms: C_3  and  C_4 
REMARK    4  A    between atoms: C_4  and  N_5 
REMARK    5  A    between atoms: N_5  and  C_6 
REMARK    6  A    between atoms: C_6  and  C_7 
REMARK    7  A    between atoms: C_7  and  C_8 
REMARK    8  A    between atoms: C_8  and  C_9 
REMARK    9  A    between atoms: C_9  and  N_10 
REMARK   10  A    between atoms: N_10  and  C_11 
REMARK   11  A    between atoms: C_11  and  C_12 
REMARK   12  A    between atoms: C_12  and  C_13 
REMARK   13  A    between atoms: C_13  and  N_14 
REMARK   14  A    between atoms: N_14  and  C_15 
REMARK   15  A    between atoms: C_15  and  C_16 
REMARK   16  A    between atoms: C_16  and  C_17 
REMARK   17  A    between atoms: C_17  and  N_18 
REMARK   18  A    between atoms: N_18  and  O_19 
REMARK   19  A    between atoms: N_18  and  C_20 
REMARK   20  A    between atoms: C_20  and  C_21 
REMARK   21  A    between atoms: C_21  and  C_22 
REMARK   22  A    between atoms: C_22  and  N_23 
REMARK       I    between atoms: N_23  and  C_24 
REMARK   23  A    between atoms: C_24  and  C_26 
REMARK   24  A    between atoms: C_26  and  C_27 
ROOT
HETATM    1  C   UNL     1     -17.066 -10.039  -4.909  1.00  0.00     0.122 C 
ENDROOT
BRANCH   1   2
HETATM    2  C   UNL     1     -15.571 -10.240  -4.704  1.00  0.00     0.046 C 
BRANCH   2   3
HETATM    3  C   UNL     1     -15.313 -11.695  -4.353  1.00  0.00     0.270 C 
BRANCH   3   4
HETATM    4  N   UNL     1     -15.368 -11.836  -2.906  1.00  0.00     0.083 N 
HETATM    5  H   UNL     1     -14.456 -11.641  -2.497  1.00  0.00     0.315 HD
BRANCH   4   6
HETATM    6  C   UNL     1     -15.798 -13.184  -2.553  1.00  0.00     0.271 C 
BRANCH   6   7
HETATM    7  C   UNL     1     -16.269 -13.202  -1.106  1.00  0.00     0.060 C 
BRANCH   7   8
HETATM    8  C   UNL     1     -17.424 -12.220  -0.966  1.00  0.00     0.271 C 
BRANCH   8   9
HETATM    9  N   UNL     1     -18.611 -12.918  -0.511  1.00  0.00     0.083 N 
HETATM   10  H   UNL     1     -18.975 -13.528  -1.241  1.00  0.00     0.315 HD
BRANCH   9  11
HETATM   11  C   UNL     1     -19.629 -11.973  -0.074  1.00  0.00     0.269 C 
BRANCH  11  12
HETATM   12  C   UNL     1     -20.803 -12.735   0.512  1.00  0.00     0.032 C 
BRANCH  12  13
HETATM   13  C   UNL     1     -22.109 -11.933   0.426  1.00  0.00     0.032 C 
BRANCH  13  14
HETATM   14  C   UNL     1     -21.999 -10.766  -0.544  1.00  0.00     0.269 C 
BRANCH  14  15
HETATM   15  N   UNL     1     -22.732  -9.618  -0.022  1.00  0.00     0.083 N 
HETATM   16  H   UNL     1     -23.465  -9.363  -0.679  1.00  0.00     0.315 HD
BRANCH  15  17
HETATM   17  C   UNL     1     -21.844  -8.487   0.171  1.00  0.00     0.271 C 
BRANCH  17  18
HETATM   18  C   UNL     1     -22.443  -7.229  -0.443  1.00  0.00     0.059 C 
BRANCH  18  19
HETATM   19  C   UNL     1     -21.766  -6.942  -1.778  1.00  0.00     0.268 C 
BRANCH  19  20
HETATM   20  N   UNL     1     -22.472  -5.874  -2.472  1.00  0.00     0.078 N 
HETATM   21  H   UNL     1     -23.063  -6.263  -3.204  1.00  0.00     0.312 HD
HETATM   22  H   UNL     1     -21.795  -5.241  -2.897  1.00  0.00     0.312 HD
ENDBRANCH  19  20
ENDBRANCH  18  19
ENDBRANCH  17  18
ENDBRANCH  15  17
ENDBRANCH  14  15
ENDBRANCH  13  14
ENDBRANCH  12  13
ENDBRANCH  11  12
ENDBRANCH   9  11
ENDBRANCH   8   9
ENDBRANCH   7   8
ENDBRANCH   6   7
ENDBRANCH   4   6
ENDBRANCH   3   4
ENDBRANCH   2   3
ENDBRANCH   1   2
BRANCH   1  23
HETATM   23  N   UNL     1     -17.770  -9.945  -3.625  1.00  0.00    -0.200 NA
BRANCH  23  24
HETATM   24  O   UNL     1     -16.852  -9.286  -2.706  1.00  0.00    -0.313 OA
HETATM   25  H   UNL     1     -16.710  -9.993  -2.045  1.00  0.00     0.237 HD
ENDBRANCH  23  24
BRANCH  23  26
HETATM   26  C   UNL     1     -18.931  -9.046  -3.726  1.00  0.00     0.122 C 
BRANCH  26  27
HETATM   27  C   UNL     1     -19.339  -8.748  -5.175  1.00  0.00     0.036 C 
BRANCH  27  28
HETATM   28  C   UNL     1     -20.584  -7.880  -5.217  1.00  0.00     0.123 C 
BRANCH  28  29
HETATM   29  N   UNL     1     -20.526  -6.871  -6.306  1.00  0.00    -0.361 N 
HETATM   30  C   UNL     1     -20.523  -5.513  -6.043  1.00  0.00     0.221 C 
HETATM   31  O   UNL     1     -20.558  -5.092  -4.883  1.00  0.00    -0.273 OA
HETATM   32  H   UNL     1     -20.577  -7.182  -7.267  1.00  0.00     0.162 HD
BRANCH  30  33
HETATM   33  C   UNL     1     -20.438  -4.513  -7.230  1.00  0.00     0.143 C 
BRANCH  33  34
HETATM   34  C   UNL     1     -21.803  -4.303  -7.820  1.00  0.00    -0.022 A 
HETATM   35  C   UNL     1     -22.977  -4.619  -7.180  1.00  0.00     0.097 A 
HETATM   36  N   UNL     1     -24.037  -4.157  -7.925  1.00  0.00    -0.365 N 
HETATM   37  C   UNL     1     -23.571  -3.659  -9.121  1.00  0.00     0.042 A 
HETATM   38  H   UNL     1     -25.013  -4.234  -7.673  1.00  0.00     0.165 HD
HETATM   39  C   UNL     1     -24.242  -3.226 -10.271  1.00  0.00     0.030 A 
HETATM   40  C   UNL     1     -22.177  -3.760  -9.071  1.00  0.00    -0.001 A 
HETATM   41  C   UNL     1     -23.463  -2.878 -11.368  1.00  0.00     0.002 A 
HETATM   42  C   UNL     1     -22.086  -2.944 -11.327  1.00  0.00     0.001 A 
HETATM   43  C   UNL     1     -21.438  -3.354 -10.180  1.00  0.00     0.014 A 
ENDBRANCH  33  34
ENDBRANCH  30  33
ENDBRANCH  28  29
ENDBRANCH  27  28
ENDBRANCH  26  27
ENDBRANCH  23  26
ENDBRANCH   1  23
TORSDOF 24
ENDMDL
MODEL 7
REMARK VINA RESULT:      -6.3     14.899     18.387
REMARK  24 active torsions:
REMARK  status: ('A' for Active; 'I' for Inactive)
REMARK    1  A    between atoms: N_1  and  C_2 
REMARK    2  A    between atoms: C_2  and  C_3 
REMARK    3  A    between atoms: C_3  and  C_4 
REMARK    4  A    between atoms: C_4  and  N_5 
REMARK    5  A    between atoms: N_5  and  C_6 
REMARK    6  A    between atoms: C_6  and  C_7 
REMARK    7  A    between atoms: C_7  and  C_8 
REMARK    8  A    between atoms: C_8  and  C_9 
REMARK    9  A    between atoms: C_9  and  N_10 
REMARK   10  A    between atoms: N_10  and  C_11 
REMARK   11  A    between atoms: C_11  and  C_12 
REMARK   12  A    between atoms: C_12  and  C_13 
REMARK   13  A    between atoms: C_13  and  N_14 
REMARK   14  A    between atoms: N_14  and  C_15 
REMARK   15  A    between atoms: C_15  and  C_16 
REMARK   16  A    between atoms: C_16  and  C_17 
REMARK   17  A    between atoms: C_17  and  N_18 
REMARK   18  A    between atoms: N_18  and  O_19 
REMARK   19  A    between atoms: N_18  and  C_20 
REMARK   20  A    between atoms: C_20  and  C_21 
REMARK   21  A    between atoms: C_21  and  C_22 
REMARK   22  A    between atoms: C_22  and  N_23 
REMARK       I    between atoms: N_23  and  C_24 
REMARK   23  A    between atoms: C_24  and  C_26 
REMARK   24  A    between atoms: C_26  and  C_27 
ROOT
HETATM    1  C   UNL     1     -18.381 -12.401  -5.920  1.00  0.00     0.122 C 
ENDROOT
BRANCH   1   2
HETATM    2  C   UNL     1     -17.032 -12.646  -6.581  1.00  0.00     0.046 C 
BRANCH   2   3
HETATM    3  C   UNL     1     -15.977 -11.817  -5.871  1.00  0.00     0.270 C 
BRANCH   3   4
HETATM    4  N   UNL     1     -16.490 -11.440  -4.563  1.00  0.00     0.083 N 
HETATM    5  H   UNL     1     -17.508 -11.421  -4.576  1.00  0.00     0.315 HD
BRANCH   4   6
HETATM    6  C   UNL     1     -15.969 -10.133  -4.180  1.00  0.00     0.271 C 
BRANCH   6   7
HETATM    7  C   UNL     1     -16.789  -9.581  -3.024  1.00  0.00     0.060 C 
BRANCH   7   8
HETATM    8  C   UNL     1     -17.585 -10.725  -2.412  1.00  0.00     0.271 C 
BRANCH   8   9
HETATM    9  N   UNL     1     -18.977 -10.339  -2.276  1.00  0.00     0.083 N 
HETATM   10  H   UNL     1     -19.592 -11.086  -2.596  1.00  0.00     0.315 HD
BRANCH   9  11
HETATM   11  C   UNL     1     -19.242  -9.104  -3.000  1.00  0.00     0.269 C 
BRANCH  11  12
HETATM   12  C   UNL     1     -20.103  -8.195  -2.142  1.00  0.00     0.032 C 
BRANCH  12  13
HETATM   13  C   UNL     1     -21.422  -7.829  -2.837  1.00  0.00     0.032 C 
BRANCH  13  14
HETATM   14  C   UNL     1     -21.535  -6.334  -3.094  1.00  0.00     0.269 C 
BRANCH  14  15
HETATM   15  N   UNL     1     -21.933  -6.098  -4.478  1.00  0.00     0.083 N 
HETATM   16  H   UNL     1     -22.700  -6.721  -4.716  1.00  0.00     0.315 HD
BRANCH  15  17
HETATM   17  C   UNL     1     -20.821  -6.336  -5.380  1.00  0.00     0.271 C 
BRANCH  17  18
HETATM   18  C   UNL     1     -21.177  -5.892  -6.792  1.00  0.00     0.059 C 
BRANCH  18  19
HETATM   19  C   UNL     1     -21.462  -4.395  -6.798  1.00  0.00     0.268 C 
BRANCH  19  20
HETATM   20  N   UNL     1     -22.716  -4.132  -7.490  1.00  0.00     0.078 N 
HETATM   21  H   UNL     1     -22.844  -4.799  -8.248  1.00  0.00     0.312 HD
HETATM   22  H   UNL     1     -22.696  -3.189  -7.880  1.00  0.00     0.312 HD
ENDBRANCH  19  20
ENDBRANCH  18  19
ENDBRANCH  17  18
ENDBRANCH  15  17
ENDBRANCH  14  15
ENDBRANCH  13  14
ENDBRANCH  12  13
ENDBRANCH  11  12
ENDBRANCH   9  11
ENDBRANCH   8   9
ENDBRANCH   7   8
ENDBRANCH   6   7
ENDBRANCH   4   6
ENDBRANCH   3   4
ENDBRANCH   2   3
ENDBRANCH   1   2
BRANCH   1  23
HETATM   23  N   UNL     1     -19.214 -11.505  -6.731  1.00  0.00    -0.200 NA
BRANCH  23  24
HETATM   24  O   UNL     1     -18.916 -11.821  -8.121  1.00  0.00    -0.313 OA
HETATM   25  H   UNL     1     -18.154 -11.230  -8.287  1.00  0.00     0.237 HD
ENDBRANCH  23  24
BRANCH  23  26
HETATM   26  C   UNL     1     -20.643 -11.816  -6.559  1.00  0.00     0.122 C 
BRANCH  26  27
HETATM   27  C   UNL     1     -21.190 -11.399  -5.188  1.00  0.00     0.036 C 
BRANCH  27  28
HETATM   28  C   UNL     1     -21.912 -12.556  -4.520  1.00  0.00     0.123 C 
BRANCH  28  29
HETATM   29  N   UNL     1     -22.484 -12.174  -3.203  1.00  0.00    -0.361 N 
HETATM   30  C   UNL     1     -22.980 -13.117  -2.322  1.00  0.00     0.221 C 
HETATM   31  O   UNL     1     -22.955 -14.319  -2.600  1.00  0.00    -0.273 OA
HETATM   32  H   UNL     1     -22.593 -11.193  -2.982  1.00  0.00     0.162 HD
BRANCH  30  33
HETATM   33  C   UNL     1     -23.545 -12.648  -0.951  1.00  0.00     0.143 C 
BRANCH  33  34
HETATM   34  C   UNL     1     -22.506 -11.848  -0.217  1.00  0.00    -0.022 A 
HETATM   35  C   UNL     1     -21.329 -12.369   0.263  1.00  0.00     0.097 A 
HETATM   36  N   UNL     1     -20.542 -11.346   0.738  1.00  0.00    -0.365 N 
HETATM   37  C   UNL     1     -21.254 -10.168   0.698  1.00  0.00     0.042 A 
HETATM   38  H   UNL     1     -19.613 -11.447   1.125  1.00  0.00     0.165 HD
HETATM   39  C   UNL     1     -20.968  -8.894   1.205  1.00  0.00     0.030 A 
HETATM   40  C   UNL     1     -22.488 -10.475   0.117  1.00  0.00    -0.001 A 
HETATM   41  C   UNL     1     -21.962  -7.929   1.091  1.00  0.00     0.002 A 
HETATM   42  C   UNL     1     -23.175  -8.206   0.495  1.00  0.00     0.001 A 
HETATM   43  C   UNL     1     -23.433  -9.461  -0.017  1.00  0.00     0.014 A 
ENDBRANCH  33  34
ENDBRANCH  30  33
ENDBRANCH  28  29
ENDBRANCH  27  28
ENDBRANCH  26  27
ENDBRANCH  23  26
ENDBRANCH   1  23
TORSDOF 24
ENDMDL
MODEL 8
REMARK VINA RESULT:      -6.2     13.531     17.019
REMARK  24 active torsions:
REMARK  status: ('A' for Active; 'I' for Inactive)
REMARK    1  A    between atoms: N_1  and  C_2 
REMARK    2  A    between atoms: C_2  and  C_3 
REMARK    3  A    between atoms: C_3  and  C_4 
REMARK    4  A    between atoms: C_4  and  N_5 
REMARK    5  A    between atoms: N_5  and  C_6 
REMARK    6  A    between atoms: C_6  and  C_7 
REMARK    7  A    between atoms: C_7  and  C_8 
REMARK    8  A    between atoms: C_8  and  C_9 
REMARK    9  A    between atoms: C_9  and  N_10 
REMARK   10  A    between atoms: N_10  and  C_11 
REMARK   11  A    between atoms: C_11  and  C_12 
REMARK   12  A    between atoms: C_12  and  C_13 
REMARK   13  A    between atoms: C_13  and  N_14 
REMARK   14  A    between atoms: N_14  and  C_15 
REMARK   15  A    between atoms: C_15  and  C_16 
REMARK   16  A    between atoms: C_16  and  C_17 
REMARK   17  A    between atoms: C_17  and  N_18 
REMARK   18  A    between atoms: N_18  and  O_19 
REMARK   19  A    between atoms: N_18  and  C_20 
REMARK   20  A    between atoms: C_20  and  C_21 
REMARK   21  A    between atoms: C_21  and  C_22 
REMARK   22  A    between atoms: C_22  and  N_23 
REMARK       I    between atoms: N_23  and  C_24 
REMARK   23  A    between atoms: C_24  and  C_26 
REMARK   24  A    between atoms: C_26  and  C_27 
ROOT
HETATM    1  C   UNL     1     -22.692  -9.605  -0.680  1.00  0.00     0.122 C 
ENDROOT
BRANCH   1   2
HETATM    2  C   UNL     1     -22.662 -10.744   0.330  1.00  0.00     0.046 C 
BRANCH   2   3
HETATM    3  C   UNL     1     -21.530 -11.691  -0.026  1.00  0.00     0.270 C 
BRANCH   3   4
HETATM    4  N   UNL     1     -20.289 -10.932  -0.060  1.00  0.00     0.083 N 
HETATM    5  H   UNL     1     -20.431 -10.044  -0.538  1.00  0.00     0.315 HD
BRANCH   4   6
HETATM    6  C   UNL     1     -19.252 -11.704  -0.735  1.00  0.00     0.271 C 
BRANCH   6   7
HETATM    7  C   UNL     1     -19.052 -11.162  -2.142  1.00  0.00     0.060 C 
BRANCH   7   8
HETATM    8  C   UNL     1     -17.598 -10.739  -2.290  1.00  0.00     0.271 C 
BRANCH   8   9
HETATM    9  N   UNL     1     -16.866 -11.747  -3.035  1.00  0.00     0.083 N 
HETATM   10  H   UNL     1     -16.626 -12.536  -2.437  1.00  0.00     0.315 HD
BRANCH   9  11
HETATM   11  C   UNL     1     -15.671 -11.174  -3.639  1.00  0.00     0.269 C 
BRANCH  11  12
HETATM   12  C   UNL     1     -16.018  -9.834  -4.262  1.00  0.00     0.032 C 
BRANCH  12  13
HETATM   13  C   UNL     1     -16.483  -9.980  -5.718  1.00  0.00     0.032 C 
BRANCH  13  14
HETATM   14  C   UNL     1     -17.969  -9.692  -5.874  1.00  0.00     0.269 C 
BRANCH  14  15
HETATM   15  N   UNL     1     -18.599 -10.751  -6.655  1.00  0.00     0.083 N 
HETATM   16  H   UNL     1     -19.043 -10.343  -7.474  1.00  0.00     0.315 HD
BRANCH  15  17
HETATM   17  C   UNL     1     -19.596 -11.448  -5.864  1.00  0.00     0.271 C 
BRANCH  17  18
HETATM   18  C   UNL     1     -20.758 -11.891  -6.743  1.00  0.00     0.059 C 
BRANCH  18  19
HETATM   19  C   UNL     1     -20.337 -13.096  -7.575  1.00  0.00     0.268 C 
BRANCH  19  20
HETATM   20  N   UNL     1     -20.384 -14.302  -6.759  1.00  0.00     0.078 N 
HETATM   21  H   UNL     1     -20.274 -14.064  -5.776  1.00  0.00     0.312 HD
HETATM   22  H   UNL     1     -19.626 -14.926  -7.035  1.00  0.00     0.312 HD
ENDBRANCH  19  20
ENDBRANCH  18  19
ENDBRANCH  17  18
ENDBRANCH  15  17
ENDBRANCH  14  15
ENDBRANCH  13  14
ENDBRANCH  12  13
ENDBRANCH  11  12
ENDBRANCH   9  11
ENDBRANCH   8   9
ENDBRANCH   7   8
ENDBRANCH   6   7
ENDBRANCH   4   6
ENDBRANCH   3   4
ENDBRANCH   2   3
ENDBRANCH   1   2
BRANCH   1  23
HETATM   23  N   UNL     1     -22.523  -8.306  -0.019  1.00  0.00    -0.200 NA
BRANCH  23  24
HETATM   24  O   UNL     1     -21.286  -8.396   0.743  1.00  0.00    -0.313 OA
HETATM   25  H   UNL     1     -21.596  -8.135   1.634  1.00  0.00     0.237 HD
ENDBRANCH  23  24
BRANCH  23  26
HETATM   26  C   UNL     1     -22.294  -7.239  -1.008  1.00  0.00     0.122 C 
BRANCH  26  27
HETATM   27  C   UNL     1     -21.054  -7.480  -1.878  1.00  0.00     0.036 C 
BRANCH  27  28
HETATM   28  C   UNL     1     -21.435  -7.581  -3.345  1.00  0.00     0.123 C 
BRANCH  28  29
HETATM   29  N   UNL     1     -21.056  -6.362  -4.106  1.00  0.00    -0.361 N 
HETATM   30  C   UNL     1     -20.737  -6.412  -5.451  1.00  0.00     0.221 C 
HETATM   31  O   UNL     1     -20.766  -7.479  -6.070  1.00  0.00    -0.273 OA
HETATM   32  H   UNL     1     -20.945  -5.488  -3.610  1.00  0.00     0.162 HD
BRANCH  30  33
HETATM   33  C   UNL     1     -20.371  -5.095  -6.191  1.00  0.00     0.143 C 
BRANCH  33  34
HETATM   34  C   UNL     1     -21.495  -4.690  -7.101  1.00  0.00    -0.022 A 
HETATM   35  C   UNL     1     -22.826  -4.788  -6.773  1.00  0.00     0.097 A 
HETATM   36  N   UNL     1     -23.580  -4.190  -7.756  1.00  0.00    -0.365 N 
HETATM   37  C   UNL     1     -22.759  -3.819  -8.796  1.00  0.00     0.042 A 
HETATM   38  H   UNL     1     -24.587  -4.100  -7.754  1.00  0.00     0.165 HD
HETATM   39  C   UNL     1     -23.047  -3.326 -10.076  1.00  0.00     0.030 A 
HETATM   40  C   UNL     1     -21.456  -4.141  -8.403  1.00  0.00    -0.001 A 
HETATM   41  C   UNL     1     -21.975  -3.150 -10.943  1.00  0.00     0.002 A 
HETATM   42  C   UNL     1     -20.681  -3.435 -10.562  1.00  0.00     0.001 A 
HETATM   43  C   UNL     1     -20.412  -3.901  -9.292  1.00  0.00     0.014 A 
ENDBRANCH  33  34
ENDBRANCH  30  33
ENDBRANCH  28  29
ENDBRANCH  27  28
ENDBRANCH  26  27
ENDBRANCH  23  26
ENDBRANCH   1  23
TORSDOF 24
ENDMDL
MODEL 9
REMARK VINA RESULT:      -6.2     13.575     17.732
REMARK  24 active torsions:
REMARK  status: ('A' for Active; 'I' for Inactive)
REMARK    1  A    between atoms: N_1  and  C_2 
REMARK    2  A    between atoms: C_2  and  C_3 
REMARK    3  A    between atoms: C_3  and  C_4 
REMARK    4  A    between atoms: C_4  and  N_5 
REMARK    5  A    between atoms: N_5  and  C_6 
REMARK    6  A    between atoms: C_6  and  C_7 
REMARK    7  A    between atoms: C_7  and  C_8 
REMARK    8  A    between atoms: C_8  and  C_9 
REMARK    9  A    between atoms: C_9  and  N_10 
REMARK   10  A    between atoms: N_10  and  C_11 
REMARK   11  A    between atoms: C_11  and  C_12 
REMARK   12  A    between atoms: C_12  and  C_13 
REMARK   13  A    between atoms: C_13  and  N_14 
REMARK   14  A    between atoms: N_14  and  C_15 
REMARK   15  A    between atoms: C_15  and  C_16 
REMARK   16  A    between atoms: C_16  and  C_17 
REMARK   17  A    between atoms: C_17  and  N_18 
REMARK   18  A    between atoms: N_18  and  O_19 
REMARK   19  A    between atoms: N_18  and  C_20 
REMARK   20  A    between atoms: C_20  and  C_21 
REMARK   21  A    between atoms: C_21  and  C_22 
REMARK   22  A    between atoms: C_22  and  N_23 
REMARK       I    between atoms: N_23  and  C_24 
REMARK   23  A    between atoms: C_24  and  C_26 
REMARK   24  A    between atoms: C_26  and  C_27 
ROOT
HETATM    1  C   UNL     1     -19.358 -12.765  -6.313  1.00  0.00     0.122 C 
ENDROOT
BRANCH   1   2
HETATM    2  C   UNL     1     -18.542 -12.954  -5.042  1.00  0.00     0.046 C 
BRANCH   2   3
HETATM    3  C   UNL     1     -17.075 -12.723  -5.360  1.00  0.00     0.270 C 
BRANCH   3   4
HETATM    4  N   UNL     1     -16.984 -11.740  -6.428  1.00  0.00     0.083 N 
HETATM    5  H   UNL     1     -16.420 -12.104  -7.195  1.00  0.00     0.315 HD
BRANCH   4   6
HETATM    6  C   UNL     1     -16.401 -10.504  -5.920  1.00  0.00     0.271 C 
BRANCH   6   7
HETATM    7  C   UNL     1     -15.622 -10.799  -4.646  1.00  0.00     0.060 C 
BRANCH   7   8
HETATM    8  C   UNL     1     -15.930  -9.705  -3.634  1.00  0.00     0.271 C 
BRANCH   8   9
HETATM    9  N   UNL     1     -16.147 -10.293  -2.325  1.00  0.00     0.083 N 
HETATM   10  H   UNL     1     -15.561 -11.116  -2.196  1.00  0.00     0.315 HD
BRANCH   9  11
HETATM   11  C   UNL     1     -17.553 -10.623  -2.136  1.00  0.00     0.269 C 
BRANCH  11  12
HETATM   12  C   UNL     1     -17.665 -12.029  -1.573  1.00  0.00     0.032 C 
BRANCH  12  13
HETATM   13  C   UNL     1     -19.106 -12.371  -1.168  1.00  0.00     0.032 C 
BRANCH  13  14
HETATM   14  C   UNL     1     -19.686 -11.347  -0.204  1.00  0.00     0.269 C 
BRANCH  14  15
HETATM   15  N   UNL     1     -21.140 -11.331  -0.314  1.00  0.00     0.083 N 
HETATM   16  H   UNL     1     -21.401 -11.370  -1.296  1.00  0.00     0.315 HD
BRANCH  15  17
HETATM   17  C   UNL     1     -21.688 -10.128   0.283  1.00  0.00     0.271 C 
BRANCH  17  18
HETATM   18  C   UNL     1     -22.407  -9.292  -0.767  1.00  0.00     0.059 C 
BRANCH  18  19
HETATM   19  C   UNL     1     -21.880  -7.863  -0.730  1.00  0.00     0.268 C 
BRANCH  19  20
HETATM   20  N   UNL     1     -20.764  -7.723  -1.655  1.00  0.00     0.078 N 
HETATM   21  H   UNL     1     -19.905  -7.535  -1.143  1.00  0.00     0.312 HD
HETATM   22  H   UNL     1     -20.946  -6.945  -2.290  1.00  0.00     0.312 HD
ENDBRANCH  19  20
ENDBRANCH  18  19
ENDBRANCH  17  18
ENDBRANCH  15  17
ENDBRANCH  14  15
ENDBRANCH  13  14
ENDBRANCH  12  13
ENDBRANCH  11  12
ENDBRANCH   9  11
ENDBRANCH   8   9
ENDBRANCH   7   8
ENDBRANCH   6   7
ENDBRANCH   4   6
ENDBRANCH   3   4
ENDBRANCH   2   3
ENDBRANCH   1   2
BRANCH   1  23
HETATM   23  N   UNL     1     -19.937 -11.418  -6.377  1.00  0.00    -0.200 NA
BRANCH  23  24
HETATM   24  O   UNL     1     -21.213 -11.557  -7.064  1.00  0.00    -0.313 OA
HETATM   25  H   UNL     1     -21.175 -12.494  -7.342  1.00  0.00     0.237 HD
ENDBRANCH  23  24
BRANCH  23  26
HETATM   26  C   UNL     1     -20.271 -10.924  -5.031  1.00  0.00     0.122 C 
BRANCH  26  27
HETATM   27  C   UNL     1     -19.807  -9.483  -4.785  1.00  0.00     0.036 C 
BRANCH  27  28
HETATM   28  C   UNL     1     -20.923  -8.498  -5.088  1.00  0.00     0.123 C 
BRANCH  28  29
HETATM   29  N   UNL     1     -20.400  -7.156  -5.454  1.00  0.00    -0.361 N 
HETATM   30  C   UNL     1     -20.943  -5.995  -4.934  1.00  0.00     0.221 C 
HETATM   31  O   UNL     1     -21.882  -6.038  -4.135  1.00  0.00    -0.273 OA
HETATM   32  H   UNL     1     -19.686  -7.085  -6.167  1.00  0.00     0.162 HD
BRANCH  30  33
HETATM   33  C   UNL     1     -20.332  -4.625  -5.344  1.00  0.00     0.143 C 
BRANCH  33  34
HETATM   34  C   UNL     1     -20.381  -4.469  -6.837  1.00  0.00    -0.022 A 
HETATM   35  C   UNL     1     -19.269  -4.410  -7.642  1.00  0.00     0.097 A 
HETATM   36  N   UNL     1     -19.663  -4.426  -8.960  1.00  0.00    -0.365 N 
HETATM   37  C   UNL     1     -21.037  -4.356  -9.025  1.00  0.00     0.042 A 
HETATM   38  H   UNL     1     -19.046  -4.416  -9.761  1.00  0.00     0.165 HD
HETATM   39  C   UNL     1     -21.908  -4.185 -10.108  1.00  0.00     0.030 A 
HETATM   40  C   UNL     1     -21.494  -4.367  -7.703  1.00  0.00    -0.001 A 
HETATM   41  C   UNL     1     -23.260  -4.044  -9.819  1.00  0.00     0.002 A 
HETATM   42  C   UNL     1     -23.731  -4.081  -8.524  1.00  0.00     0.001 A 
HETATM   43  C   UNL     1     -22.863  -4.270  -7.469  1.00  0.00     0.014 A 
ENDBRANCH  33  34
ENDBRANCH  30  33
ENDBRANCH  28  29
ENDBRANCH  27  28
ENDBRANCH  26  27
ENDBRANCH  23  26
ENDBRANCH   1  23
TORSDOF 24
ENDMDL
