MODEL 1
REMARK VINA RESULT:      -7.6      0.000      0.000
REMARK  17 active torsions:
REMARK  status: ('A' for Active; 'I' for Inactive)
REMARK    1  A    between atoms: C_2  and  C_3 
REMARK    2  A    between atoms: C_3  and  C_4 
REMARK    3  A    between atoms: C_4  and  C_5 
REMARK    4  A    between atoms: C_5  and  C_6 
REMARK    5  A    between atoms: C_7  and  C_8 
REMARK    6  A    between atoms: C_8  and  C_9 
REMARK    7  A    between atoms: C_10  and  C_11 
REMARK    8  A    between atoms: C_11  and  C_12 
REMARK    9  A    between atoms: C_13  and  C_14 
REMARK   10  A    between atoms: C_14  and  C_15 
REMARK   11  A    between atoms: C_16  and  C_17 
REMARK   12  A    between atoms: C_17  and  C_18 
REMARK   13  A    between atoms: C_18  and  C_19 
REMARK   14  A    between atoms: C_19  and  C_20 
REMARK       I    between atoms: C_20  and  N_22 
REMARK   15  A    between atoms: N_22  and  C_23 
REMARK   16  A    between atoms: C_23  and  C_24 
REMARK   17  A    between atoms: C_24  and  O_25 
ROOT
HETATM    1  C   UNL     1     -20.818  -6.776  -6.158  1.00  0.00     0.053 C 
ENDROOT
BRANCH   1   2
HETATM    2  C   UNL     1     -20.680  -6.512  -4.690  1.00  0.00    -0.027 C 
HETATM    3  C   UNL     1     -21.721  -6.336  -3.859  1.00  0.00    -0.027 C 
BRANCH   3   4
HETATM    4  C   UNL     1     -21.575  -6.059  -2.394  1.00  0.00     0.053 C 
BRANCH   4   5
HETATM    5  C   UNL     1     -22.460  -6.957  -1.580  1.00  0.00    -0.027 C 
HETATM    6  C   UNL     1     -22.213  -7.297  -0.306  1.00  0.00    -0.027 C 
BRANCH   6   7
HETATM    7  C   UNL     1     -23.093  -8.199   0.505  1.00  0.00     0.053 C 
BRANCH   7   8
HETATM    8  C   UNL     1     -22.904  -9.632   0.107  1.00  0.00    -0.027 C 
HETATM    9  C   UNL     1     -23.896 -10.430  -0.318  1.00  0.00    -0.030 C 
BRANCH   9  10
HETATM   10  C   UNL     1     -23.695 -11.858  -0.731  1.00  0.00     0.027 C 
BRANCH  10  11
HETATM   11  C   UNL     1     -22.599 -11.974  -1.793  1.00  0.00     0.004 C 
BRANCH  11  12
HETATM   12  C   UNL     1     -22.890 -11.064  -2.987  1.00  0.00    -0.000 C 
BRANCH  12  13
HETATM   13  C   UNL     1     -21.615 -10.739  -3.765  1.00  0.00    -0.005 C 
HETATM   14  C   UNL     1     -20.678  -9.863  -2.948  1.00  0.00     0.005 C 
ENDBRANCH  12  13
ENDBRANCH  11  12
ENDBRANCH  10  11
ENDBRANCH   9  10
ENDBRANCH   7   8
ENDBRANCH   6   7
ENDBRANCH   4   5
ENDBRANCH   3   4
ENDBRANCH   1   2
BRANCH   1  15
HETATM   15  C   UNL     1     -20.836  -5.495  -6.937  1.00  0.00    -0.027 C 
HETATM   16  C   UNL     1     -20.203  -5.323  -8.107  1.00  0.00    -0.030 C 
BRANCH  16  17
HETATM   17  C   UNL     1     -20.267  -4.057  -8.911  1.00  0.00     0.027 C 
BRANCH  17  18
HETATM   18  C   UNL     1     -21.445  -4.048  -9.885  1.00  0.00     0.013 C 
BRANCH  18  19
HETATM   19  C   UNL     1     -22.798  -3.823  -9.204  1.00  0.00     0.103 C 
BRANCH  19  20
HETATM   20  C   UNL     1     -23.902  -3.627 -10.223  1.00  0.00     0.217 C 
HETATM   21  O   UNL     1     -25.070  -3.944 -10.031  1.00  0.00    -0.274 OA
HETATM   22  N   UNL     1     -23.470  -3.040 -11.390  1.00  0.00    -0.359 N 
HETATM   23  H   UNL     1     -22.500  -2.763 -11.487  1.00  0.00     0.162 HD
BRANCH  22  24
HETATM   24  C   UNL     1     -24.383  -2.815 -12.502  1.00  0.00     0.148 C 
BRANCH  24  25
HETATM   25  C   UNL     1     -23.715  -2.070 -13.657  1.00  0.00     0.183 C 
BRANCH  25  26
HETATM   26  O   UNL     1     -23.798  -2.848 -14.852  1.00  0.00    -0.399 OA
HETATM   27  H   UNL     1     -24.576  -2.517 -15.334  1.00  0.00     0.209 HD
ENDBRANCH  25  26
ENDBRANCH  24  25
ENDBRANCH  22  24
ENDBRANCH  19  20
ENDBRANCH  18  19
ENDBRANCH  17  18
ENDBRANCH  16  17
ENDBRANCH   1  15
TORSDOF 17
ENDMDL
MODEL 2
REMARK VINA RESULT:      -7.5      1.351      2.386
REMARK  17 active torsions:
REMARK  status: ('A' for Active; 'I' for Inactive)
REMARK    1  A    between atoms: C_2  and  C_3 
REMARK    2  A    between atoms: C_3  and  C_4 
REMARK    3  A    between atoms: C_4  and  C_5 
REMARK    4  A    between atoms: C_5  and  C_6 
REMARK    5  A    between atoms: C_7  and  C_8 
REMARK    6  A    between atoms: C_8  and  C_9 
REMARK    7  A    between atoms: C_10  and  C_11 
REMARK    8  A    between atoms: C_11  and  C_12 
REMARK    9  A    between atoms: C_13  and  C_14 
REMARK   10  A    between atoms: C_14  and  C_15 
REMARK   11  A    between atoms: C_16  and  C_17 
REMARK   12  A    between atoms: C_17  and  C_18 
REMARK   13  A    between atoms: C_18  and  C_19 
REMARK   14  A    between atoms: C_19  and  C_20 
REMARK       I    between atoms: C_20  and  N_22 
REMARK   15  A    between atoms: N_22  and  C_23 
REMARK   16  A    between atoms: C_23  and  C_24 
REMARK   17  A    between atoms: C_24  and  O_25 
ROOT
HETATM    1  C   UNL     1     -19.310  -4.625  -6.263  1.00  0.00     0.053 C 
ENDROOT
BRANCH   1   2
HETATM    2  C   UNL     1     -20.275  -5.298  -5.334  1.00  0.00    -0.027 C 
HETATM    3  C   UNL     1     -21.472  -5.774  -5.712  1.00  0.00    -0.027 C 
BRANCH   3   4
HETATM    4  C   UNL     1     -22.437  -6.434  -4.775  1.00  0.00     0.053 C 
BRANCH   4   5
HETATM    5  C   UNL     1     -21.845  -6.588  -3.405  1.00  0.00    -0.027 C 
HETATM    6  C   UNL     1     -22.573  -6.702  -2.283  1.00  0.00    -0.027 C 
BRANCH   6   7
HETATM    7  C   UNL     1     -21.982  -6.851  -0.914  1.00  0.00     0.053 C 
BRANCH   7   8
HETATM    8  C   UNL     1     -21.883  -8.296  -0.527  1.00  0.00    -0.027 C 
HETATM    9  C   UNL     1     -22.907  -9.014  -0.040  1.00  0.00    -0.030 C 
BRANCH   9  10
HETATM   10  C   UNL     1     -22.806 -10.464   0.328  1.00  0.00     0.027 C 
BRANCH  10  11
HETATM   11  C   UNL     1     -23.487 -11.346  -0.721  1.00  0.00     0.004 C 
BRANCH  11  12
HETATM   12  C   UNL     1     -23.676 -12.773  -0.204  1.00  0.00    -0.000 C 
BRANCH  12  13
HETATM   13  C   UNL     1     -22.737 -13.073   0.964  1.00  0.00    -0.005 C 
HETATM   14  C   UNL     1     -23.467 -13.784   2.091  1.00  0.00     0.005 C 
ENDBRANCH  12  13
ENDBRANCH  11  12
ENDBRANCH  10  11
ENDBRANCH   9  10
ENDBRANCH   7   8
ENDBRANCH   6   7
ENDBRANCH   4   5
ENDBRANCH   3   4
ENDBRANCH   1   2
BRANCH   1  15
HETATM   15  C   UNL     1     -19.754  -4.757  -7.688  1.00  0.00    -0.027 C 
HETATM   16  C   UNL     1     -20.309  -3.760  -8.394  1.00  0.00    -0.030 C 
BRANCH  16  17
HETATM   17  C   UNL     1     -20.703  -3.879  -9.837  1.00  0.00     0.027 C 
BRANCH  17  18
HETATM   18  C   UNL     1     -22.079  -4.523 -10.009  1.00  0.00     0.013 C 
BRANCH  18  19
HETATM   19  C   UNL     1     -23.223  -3.685  -9.431  1.00  0.00     0.103 C 
BRANCH  19  20
HETATM   20  C   UNL     1     -24.226  -3.310 -10.502  1.00  0.00     0.217 C 
HETATM   21  O   UNL     1     -25.438  -3.280 -10.319  1.00  0.00    -0.274 OA
HETATM   22  N   UNL     1     -23.646  -2.987 -11.707  1.00  0.00    -0.359 N 
HETATM   23  H   UNL     1     -22.636  -2.993 -11.798  1.00  0.00     0.162 HD
BRANCH  22  24
HETATM   24  C   UNL     1     -24.457  -2.646 -12.866  1.00  0.00     0.148 C 
BRANCH  24  25
HETATM   25  C   UNL     1     -23.650  -1.929 -13.947  1.00  0.00     0.183 C 
BRANCH  25  26
HETATM   26  O   UNL     1     -23.775  -2.621 -15.189  1.00  0.00    -0.399 OA
HETATM   27  H   UNL     1     -24.150  -3.493 -14.974  1.00  0.00     0.209 HD
ENDBRANCH  25  26
ENDBRANCH  24  25
ENDBRANCH  22  24
ENDBRANCH  19  20
ENDBRANCH  18  19
ENDBRANCH  17  18
ENDBRANCH  16  17
ENDBRANCH   1  15
TORSDOF 17
ENDMDL
MODEL 3
REMARK VINA RESULT:      -7.3      1.981      2.721
REMARK  17 active torsions:
REMARK  status: ('A' for Active; 'I' for Inactive)
REMARK    1  A    between atoms: C_2  and  C_3 
REMARK    2  A    between atoms: C_3  and  C_4 
REMARK    3  A    between atoms: C_4  and  C_5 
REMARK    4  A    between atoms: C_5  and  C_6 
REMARK    5  A    between atoms: C_7  and  C_8 
REMARK    6  A    between atoms: C_8  and  C_9 
REMARK    7  A    between atoms: C_10  and  C_11 
REMARK    8  A    between atoms: C_11  and  C_12 
REMARK    9  A    between atoms: C_13  and  C_14 
REMARK   10  A    between atoms: C_14  and  C_15 
REMARK   11  A    between atoms: C_16  and  C_17 
REMARK   12  A    between atoms: C_17  and  C_18 
REMARK   13  A    between atoms: C_18  and  C_19 
REMARK   14  A    between atoms: C_19  and  C_20 
REMARK       I    between atoms: C_20  and  N_22 
REMARK   15  A    between atoms: N_22  and  C_23 
REMARK   16  A    between atoms: C_23  and  C_24 
REMARK   17  A    between atoms: C_24  and  O_25 
ROOT
HETATM    1  C   UNL     1     -21.218  -7.678  -5.529  1.00  0.00     0.053 C 
ENDROOT
BRANCH   1   2
HETATM    2  C   UNL     1     -21.474  -7.469  -4.067  1.00  0.00    -0.027 C 
HETATM    3  C   UNL     1     -21.844  -6.295  -3.531  1.00  0.00    -0.027 C 
BRANCH   3   4
HETATM    4  C   UNL     1     -22.085  -6.090  -2.067  1.00  0.00     0.053 C 
BRANCH   4   5
HETATM    5  C   UNL     1     -22.069  -7.395  -1.326  1.00  0.00    -0.027 C 
HETATM    6  C   UNL     1     -22.165  -7.500   0.009  1.00  0.00    -0.027 C 
BRANCH   6   7
HETATM    7  C   UNL     1     -22.144  -8.803   0.749  1.00  0.00     0.053 C 
BRANCH   7   8
HETATM    8  C   UNL     1     -22.548  -9.935  -0.146  1.00  0.00    -0.027 C 
HETATM    9  C   UNL     1     -23.745 -10.540  -0.097  1.00  0.00    -0.030 C 
BRANCH   9  10
HETATM   10  C   UNL     1     -24.149 -11.661  -1.008  1.00  0.00     0.027 C 
BRANCH  10  11
HETATM   11  C   UNL     1     -23.600 -13.000  -0.509  1.00  0.00     0.004 C 
BRANCH  11  12
HETATM   12  C   UNL     1     -23.570 -13.049   1.019  1.00  0.00    -0.000 C 
BRANCH  12  13
HETATM   13  C   UNL     1     -22.181 -13.419   1.540  1.00  0.00    -0.005 C 
HETATM   14  C   UNL     1     -21.159 -13.445   0.414  1.00  0.00     0.005 C 
ENDBRANCH  12  13
ENDBRANCH  11  12
ENDBRANCH  10  11
ENDBRANCH   9  10
ENDBRANCH   7   8
ENDBRANCH   6   7
ENDBRANCH   4   5
ENDBRANCH   3   4
ENDBRANCH   1   2
BRANCH   1  15
HETATM   15  C   UNL     1     -20.886  -6.383  -6.208  1.00  0.00    -0.027 C 
HETATM   16  C   UNL     1     -19.693  -6.112  -6.759  1.00  0.00    -0.030 C 
BRANCH  16  17
HETATM   17  C   UNL     1     -19.381  -4.836  -7.485  1.00  0.00     0.027 C 
BRANCH  17  18
HETATM   18  C   UNL     1     -19.674  -4.936  -8.982  1.00  0.00     0.013 C 
BRANCH  18  19
HETATM   19  C   UNL     1     -20.501  -3.767  -9.522  1.00  0.00     0.103 C 
BRANCH  19  20
HETATM   20  C   UNL     1     -21.972  -3.937  -9.200  1.00  0.00     0.217 C 
HETATM   21  O   UNL     1     -22.467  -3.656  -8.115  1.00  0.00    -0.274 OA
HETATM   22  N   UNL     1     -22.709  -4.427 -10.253  1.00  0.00    -0.359 N 
HETATM   23  H   UNL     1     -22.259  -4.610 -11.142  1.00  0.00     0.162 HD
BRANCH  22  24
HETATM   24  C   UNL     1     -24.132  -4.699 -10.113  1.00  0.00     0.148 C 
BRANCH  24  25
HETATM   25  C   UNL     1     -24.987  -3.461 -10.377  1.00  0.00     0.183 C 
BRANCH  25  26
HETATM   26  O   UNL     1     -25.172  -2.728  -9.166  1.00  0.00    -0.399 OA
HETATM   27  H   UNL     1     -24.307  -2.337  -8.954  1.00  0.00     0.209 HD
ENDBRANCH  25  26
ENDBRANCH  24  25
ENDBRANCH  22  24
ENDBRANCH  19  20
ENDBRANCH  18  19
ENDBRANCH  17  18
ENDBRANCH  16  17
ENDBRANCH   1  15
TORSDOF 17
ENDMDL
MODEL 4
REMARK VINA RESULT:      -7.1      2.013      3.755
REMARK  17 active torsions:
REMARK  status: ('A' for Active; 'I' for Inactive)
REMARK    1  A    between atoms: C_2  and  C_3 
REMARK    2  A    between atoms: C_3  and  C_4 
REMARK    3  A    between atoms: C_4  and  C_5 
REMARK    4  A    between atoms: C_5  and  C_6 
REMARK    5  A    between atoms: C_7  and  C_8 
REMARK    6  A    between atoms: C_8  and  C_9 
REMARK    7  A    between atoms: C_10  and  C_11 
REMARK    8  A    between atoms: C_11  and  C_12 
REMARK    9  A    between atoms: C_13  and  C_14 
REMARK   10  A    between atoms: C_14  and  C_15 
REMARK   11  A    between atoms: C_16  and  C_17 
REMARK   12  A    between atoms: C_17  and  C_18 
REMARK   13  A    between atoms: C_18  and  C_19 
REMARK   14  A    between atoms: C_19  and  C_20 
REMARK       I    between atoms: C_20  and  N_22 
REMARK   15  A    between atoms: N_22  and  C_23 
REMARK   16  A    between atoms: C_23  and  C_24 
REMARK   17  A    between atoms: C_24  and  O_25 
ROOT
HETATM    1  C   UNL     1     -21.708  -6.050  -2.413  1.00  0.00     0.053 C 
ENDROOT
BRANCH   1   2
HETATM    2  C   UNL     1     -22.037  -7.207  -1.518  1.00  0.00    -0.027 C 
HETATM    3  C   UNL     1     -22.410  -7.078  -0.235  1.00  0.00    -0.027 C 
BRANCH   3   4
HETATM    4  C   UNL     1     -22.725  -8.240   0.658  1.00  0.00     0.053 C 
BRANCH   4   5
HETATM    5  C   UNL     1     -23.245  -9.406  -0.130  1.00  0.00    -0.027 C 
HETATM    6  C   UNL     1     -23.247 -10.671   0.317  1.00  0.00    -0.027 C 
BRANCH   6   7
HETATM    7  C   UNL     1     -23.762 -11.837  -0.472  1.00  0.00     0.053 C 
BRANCH   7   8
HETATM    8  C   UNL     1     -23.662 -11.573  -1.944  1.00  0.00    -0.027 C 
HETATM    9  C   UNL     1     -22.502 -11.468  -2.611  1.00  0.00    -0.030 C 
BRANCH   9  10
HETATM   10  C   UNL     1     -22.411 -11.221  -4.088  1.00  0.00     0.027 C 
BRANCH  10  11
HETATM   11  C   UNL     1     -21.385 -10.128  -4.399  1.00  0.00     0.004 C 
BRANCH  11  12
HETATM   12  C   UNL     1     -20.452  -9.894  -3.211  1.00  0.00    -0.000 C 
BRANCH  12  13
HETATM   13  C   UNL     1     -19.240  -9.051  -3.611  1.00  0.00    -0.005 C 
HETATM   14  C   UNL     1     -17.980  -9.526  -2.905  1.00  0.00     0.005 C 
ENDBRANCH  12  13
ENDBRANCH  11  12
ENDBRANCH  10  11
ENDBRANCH   9  10
ENDBRANCH   7   8
ENDBRANCH   6   7
ENDBRANCH   4   5
ENDBRANCH   3   4
ENDBRANCH   1   2
BRANCH   1  15
HETATM   15  C   UNL     1     -21.826  -6.435  -3.857  1.00  0.00    -0.027 C 
HETATM   16  C   UNL     1     -21.009  -5.983  -4.820  1.00  0.00    -0.030 C 
BRANCH  16  17
HETATM   17  C   UNL     1     -21.097  -6.411  -6.256  1.00  0.00     0.027 C 
BRANCH  17  18
HETATM   18  C   UNL     1     -19.804  -6.132  -7.023  1.00  0.00     0.013 C 
BRANCH  18  19
HETATM   19  C   UNL     1     -19.541  -4.642  -7.255  1.00  0.00     0.103 C 
BRANCH  19  20
HETATM   20  C   UNL     1     -20.757  -3.951  -7.835  1.00  0.00     0.217 C 
HETATM   21  O   UNL     1     -21.459  -3.167  -7.207  1.00  0.00    -0.274 OA
HETATM   22  N   UNL     1     -20.996  -4.278  -9.151  1.00  0.00    -0.359 N 
HETATM   23  H   UNL     1     -20.365  -4.905  -9.637  1.00  0.00     0.162 HD
BRANCH  22  24
HETATM   24  C   UNL     1     -22.150  -3.746  -9.861  1.00  0.00     0.148 C 
BRANCH  24  25
HETATM   25  C   UNL     1     -23.441  -4.479  -9.500  1.00  0.00     0.183 C 
BRANCH  25  26
HETATM   26  O   UNL     1     -24.162  -3.740  -8.514  1.00  0.00    -0.399 OA
HETATM   27  H   UNL     1     -24.731  -3.123  -9.006  1.00  0.00     0.209 HD
ENDBRANCH  25  26
ENDBRANCH  24  25
ENDBRANCH  22  24
ENDBRANCH  19  20
ENDBRANCH  18  19
ENDBRANCH  17  18
ENDBRANCH  16  17
ENDBRANCH   1  15
TORSDOF 17
ENDMDL
MODEL 5
REMARK VINA RESULT:      -7.1      2.869      4.775
REMARK  17 active torsions:
REMARK  status: ('A' for Active; 'I' for Inactive)
REMARK    1  A    between atoms: C_2  and  C_3 
REMARK    2  A    between atoms: C_3  and  C_4 
REMARK    3  A    between atoms: C_4  and  C_5 
REMARK    4  A    between atoms: C_5  and  C_6 
REMARK    5  A    between atoms: C_7  and  C_8 
REMARK    6  A    between atoms: C_8  and  C_9 
REMARK    7  A    between atoms: C_10  and  C_11 
REMARK    8  A    between atoms: C_11  and  C_12 
REMARK    9  A    between atoms: C_13  and  C_14 
REMARK   10  A    between atoms: C_14  and  C_15 
REMARK   11  A    between atoms: C_16  and  C_17 
REMARK   12  A    between atoms: C_17  and  C_18 
REMARK   13  A    between atoms: C_18  and  C_19 
REMARK   14  A    between atoms: C_19  and  C_20 
REMARK       I    between atoms: C_20  and  N_22 
REMARK   15  A    between atoms: N_22  and  C_23 
REMARK   16  A    between atoms: C_23  and  C_24 
REMARK   17  A    between atoms: C_24  and  O_25 
ROOT
HETATM    1  C   UNL     1     -21.809  -6.121  -2.455  1.00  0.00     0.053 C 
ENDROOT
BRANCH   1   2
HETATM    2  C   UNL     1     -22.062  -7.308  -1.576  1.00  0.00    -0.027 C 
HETATM    3  C   UNL     1     -22.624  -7.232  -0.358  1.00  0.00    -0.027 C 
BRANCH   3   4
HETATM    4  C   UNL     1     -22.861  -8.421   0.522  1.00  0.00     0.053 C 
BRANCH   4   5
HETATM    5  C   UNL     1     -22.931  -9.686  -0.282  1.00  0.00    -0.027 C 
HETATM    6  C   UNL     1     -23.862 -10.636  -0.104  1.00  0.00    -0.027 C 
BRANCH   6   7
HETATM    7  C   UNL     1     -23.929 -11.903  -0.903  1.00  0.00     0.053 C 
BRANCH   7   8
HETATM    8  C   UNL     1     -23.624 -13.094  -0.044  1.00  0.00    -0.027 C 
HETATM    9  C   UNL     1     -23.207 -13.014   1.229  1.00  0.00    -0.030 C 
BRANCH   9  10
HETATM   10  C   UNL     1     -22.921 -14.211   2.087  1.00  0.00     0.027 C 
BRANCH  10  11
HETATM   11  C   UNL     1     -24.105 -15.180   2.090  1.00  0.00     0.004 C 
BRANCH  11  12
HETATM   12  C   UNL     1     -24.173 -15.965   3.400  1.00  0.00    -0.000 C 
BRANCH  12  13
HETATM   13  C   UNL     1     -22.860 -15.868   4.177  1.00  0.00    -0.005 C 
HETATM   14  C   UNL     1     -23.099 -15.432   5.614  1.00  0.00     0.005 C 
ENDBRANCH  12  13
ENDBRANCH  11  12
ENDBRANCH  10  11
ENDBRANCH   9  10
ENDBRANCH   7   8
ENDBRANCH   6   7
ENDBRANCH   4   5
ENDBRANCH   3   4
ENDBRANCH   1   2
BRANCH   1  15
HETATM   15  C   UNL     1     -21.419  -6.548  -3.838  1.00  0.00    -0.027 C 
HETATM   16  C   UNL     1     -21.114  -5.694  -4.826  1.00  0.00    -0.030 C 
BRANCH  16  17
HETATM   17  C   UNL     1     -20.672  -6.125  -6.194  1.00  0.00     0.027 C 
BRANCH  17  18
HETATM   18  C   UNL     1     -19.996  -4.992  -6.967  1.00  0.00     0.013 C 
BRANCH  18  19
HETATM   19  C   UNL     1     -20.955  -3.866  -7.364  1.00  0.00     0.103 C 
BRANCH  19  20
HETATM   20  C   UNL     1     -21.600  -4.139  -8.707  1.00  0.00     0.217 C 
HETATM   21  O   UNL     1     -20.978  -4.192  -9.762  1.00  0.00    -0.274 OA
HETATM   22  N   UNL     1     -22.959  -4.337  -8.631  1.00  0.00    -0.359 N 
HETATM   23  H   UNL     1     -23.422  -4.318  -7.730  1.00  0.00     0.162 HD
BRANCH  22  24
HETATM   24  C   UNL     1     -23.755  -4.566  -9.828  1.00  0.00     0.148 C 
BRANCH  24  25
HETATM   25  C   UNL     1     -24.514  -3.315 -10.267  1.00  0.00     0.183 C 
BRANCH  25  26
HETATM   26  O   UNL     1     -25.840  -3.338  -9.738  1.00  0.00    -0.399 OA
HETATM   27  H   UNL     1     -26.121  -4.269  -9.761  1.00  0.00     0.209 HD
ENDBRANCH  25  26
ENDBRANCH  24  25
ENDBRANCH  22  24
ENDBRANCH  19  20
ENDBRANCH  18  19
ENDBRANCH  17  18
ENDBRANCH  16  17
ENDBRANCH   1  15
TORSDOF 17
ENDMDL
MODEL 6
REMARK VINA RESULT:      -6.9      2.076      2.907
REMARK  17 active torsions:
REMARK  status: ('A' for Active; 'I' for Inactive)
REMARK    1  A    between atoms: C_2  and  C_3 
REMARK    2  A    between atoms: C_3  and  C_4 
REMARK    3  A    between atoms: C_4  and  C_5 
REMARK    4  A    between atoms: C_5  and  C_6 
REMARK    5  A    between atoms: C_7  and  C_8 
REMARK    6  A    between atoms: C_8  and  C_9 
REMARK    7  A    between atoms: C_10  and  C_11 
REMARK    8  A    between atoms: C_11  and  C_12 
REMARK    9  A    between atoms: C_13  and  C_14 
REMARK   10  A    between atoms: C_14  and  C_15 
REMARK   11  A    between atoms: C_16  and  C_17 
REMARK   12  A    between atoms: C_17  and  C_18 
REMARK   13  A    between atoms: C_18  and  C_19 
REMARK   14  A    between atoms: C_19  and  C_20 
REMARK       I    between atoms: C_20  and  N_22 
REMARK   15  A    between atoms: N_22  and  C_23 
REMARK   16  A    between atoms: C_23  and  C_24 
REMARK   17  A    between atoms: C_24  and  O_25 
ROOT
HETATM    1  C   UNL     1     -20.579  -7.021  -5.041  1.00  0.00     0.053 C 
ENDROOT
BRANCH   1   2
HETATM    2  C   UNL     1     -21.588  -6.986  -3.933  1.00  0.00    -0.027 C 
HETATM    3  C   UNL     1     -21.373  -6.403  -2.743  1.00  0.00    -0.027 C 
BRANCH   3   4
HETATM    4  C   UNL     1     -22.381  -6.384  -1.634  1.00  0.00     0.053 C 
BRANCH   4   5
HETATM    5  C   UNL     1     -21.948  -7.254  -0.491  1.00  0.00    -0.027 C 
HETATM    6  C   UNL     1     -22.320  -8.535  -0.343  1.00  0.00    -0.027 C 
BRANCH   6   7
HETATM    7  C   UNL     1     -21.892  -9.404   0.801  1.00  0.00     0.053 C 
BRANCH   7   8
HETATM    8  C   UNL     1     -20.806 -10.348   0.380  1.00  0.00    -0.027 C 
HETATM    9  C   UNL     1     -20.721 -10.895  -0.843  1.00  0.00    -0.030 C 
BRANCH   9  10
HETATM   10  C   UNL     1     -19.622 -11.826  -1.263  1.00  0.00     0.027 C 
BRANCH  10  11
HETATM   11  C   UNL     1     -18.497 -11.064  -1.969  1.00  0.00     0.004 C 
BRANCH  11  12
HETATM   12  C   UNL     1     -19.029  -9.804  -2.652  1.00  0.00    -0.000 C 
BRANCH  12  13
HETATM   13  C   UNL     1     -18.044  -9.277  -3.696  1.00  0.00    -0.005 C 
HETATM   14  C   UNL     1     -17.670 -10.357  -4.697  1.00  0.00     0.005 C 
ENDBRANCH  12  13
ENDBRANCH  11  12
ENDBRANCH  10  11
ENDBRANCH   9  10
ENDBRANCH   7   8
ENDBRANCH   6   7
ENDBRANCH   4   5
ENDBRANCH   3   4
ENDBRANCH   1   2
BRANCH   1  15
HETATM   15  C   UNL     1     -20.930  -6.042  -6.120  1.00  0.00    -0.027 C 
HETATM   16  C   UNL     1     -20.594  -4.744  -6.090  1.00  0.00    -0.030 C 
BRANCH  16  17
HETATM   17  C   UNL     1     -20.900  -3.777  -7.197  1.00  0.00     0.027 C 
BRANCH  17  18
HETATM   18  C   UNL     1     -19.859  -3.831  -8.315  1.00  0.00     0.013 C 
BRANCH  18  19
HETATM   19  C   UNL     1     -20.312  -4.639  -9.534  1.00  0.00     0.103 C 
BRANCH  19  20
HETATM   20  C   UNL     1     -21.584  -4.071 -10.130  1.00  0.00     0.217 C 
HETATM   21  O   UNL     1     -21.623  -3.043 -10.796  1.00  0.00    -0.274 OA
HETATM   22  N   UNL     1     -22.700  -4.830  -9.862  1.00  0.00    -0.359 N 
HETATM   23  H   UNL     1     -22.610  -5.691  -9.335  1.00  0.00     0.162 HD
BRANCH  22  24
HETATM   24  C   UNL     1     -24.019  -4.414 -10.315  1.00  0.00     0.148 C 
BRANCH  24  25
HETATM   25  C   UNL     1     -24.647  -3.372  -9.390  1.00  0.00     0.183 C 
BRANCH  25  26
HETATM   26  O   UNL     1     -26.023  -3.191  -9.722  1.00  0.00    -0.399 OA
HETATM   27  H   UNL     1     -26.170  -3.693 -10.543  1.00  0.00     0.209 HD
ENDBRANCH  25  26
ENDBRANCH  24  25
ENDBRANCH  22  24
ENDBRANCH  19  20
ENDBRANCH  18  19
ENDBRANCH  17  18
ENDBRANCH  16  17
ENDBRANCH   1  15
TORSDOF 17
ENDMDL
MODEL 7
REMARK VINA RESULT:      -6.9      2.753      5.937
REMARK  17 active torsions:
REMARK  status: ('A' for Active; 'I' for Inactive)
REMARK    1  A    between atoms: C_2  and  C_3 
REMARK    2  A    between atoms: C_3  and  C_4 
REMARK    3  A    between atoms: C_4  and  C_5 
REMARK    4  A    between atoms: C_5  and  C_6 
REMARK    5  A    between atoms: C_7  and  C_8 
REMARK    6  A    between atoms: C_8  and  C_9 
REMARK    7  A    between atoms: C_10  and  C_11 
REMARK    8  A    between atoms: C_11  and  C_12 
REMARK    9  A    between atoms: C_13  and  C_14 
REMARK   10  A    between atoms: C_14  and  C_15 
REMARK   11  A    between atoms: C_16  and  C_17 
REMARK   12  A    between atoms: C_17  and  C_18 
REMARK   13  A    between atoms: C_18  and  C_19 
REMARK   14  A    between atoms: C_19  and  C_20 
REMARK       I    between atoms: C_20  and  N_22 
REMARK   15  A    between atoms: N_22  and  C_23 
REMARK   16  A    between atoms: C_23  and  C_24 
REMARK   17  A    between atoms: C_24  and  O_25 
ROOT
HETATM    1  C   UNL     1     -22.430  -8.056   0.499  1.00  0.00     0.053 C 
ENDROOT
BRANCH   1   2
HETATM    2  C   UNL     1     -22.631  -9.429  -0.068  1.00  0.00    -0.027 C 
HETATM    3  C   UNL     1     -23.808 -10.075  -0.067  1.00  0.00    -0.027 C 
BRANCH   3   4
HETATM    4  C   UNL     1     -23.999 -11.453  -0.623  1.00  0.00     0.053 C 
BRANCH   4   5
HETATM    5  C   UNL     1     -23.032 -11.728  -1.737  1.00  0.00    -0.027 C 
HETATM    6  C   UNL     1     -23.054 -11.095  -2.921  1.00  0.00    -0.027 C 
BRANCH   6   7
HETATM    7  C   UNL     1     -22.092 -11.373  -4.036  1.00  0.00     0.053 C 
BRANCH   7   8
HETATM    8  C   UNL     1     -20.954 -10.396  -4.018  1.00  0.00    -0.027 C 
HETATM    9  C   UNL     1     -20.116 -10.240  -2.981  1.00  0.00    -0.030 C 
BRANCH   9  10
HETATM   10  C   UNL     1     -18.970  -9.273  -2.977  1.00  0.00     0.027 C 
BRANCH  10  11
HETATM   11  C   UNL     1     -17.765  -9.846  -3.727  1.00  0.00     0.004 C 
BRANCH  11  12
HETATM   12  C   UNL     1     -17.851  -9.545  -5.224  1.00  0.00    -0.000 C 
BRANCH  12  13
HETATM   13  C   UNL     1     -16.605 -10.029  -5.964  1.00  0.00    -0.005 C 
HETATM   14  C   UNL     1     -15.465 -10.312  -4.999  1.00  0.00     0.005 C 
ENDBRANCH  12  13
ENDBRANCH  11  12
ENDBRANCH  10  11
ENDBRANCH   9  10
ENDBRANCH   7   8
ENDBRANCH   6   7
ENDBRANCH   4   5
ENDBRANCH   3   4
ENDBRANCH   1   2
BRANCH   1  15
HETATM   15  C   UNL     1     -22.395  -7.024  -0.587  1.00  0.00    -0.027 C 
HETATM   16  C   UNL     1     -21.816  -7.216  -1.782  1.00  0.00    -0.030 C 
BRANCH  16  17
HETATM   17  C   UNL     1     -21.829  -6.200  -2.887  1.00  0.00     0.027 C 
BRANCH  17  18
HETATM   18  C   UNL     1     -21.909  -6.850  -4.269  1.00  0.00     0.013 C 
BRANCH  18  19
HETATM   19  C   UNL     1     -20.594  -6.792  -5.049  1.00  0.00     0.103 C 
BRANCH  19  20
HETATM   20  C   UNL     1     -20.547  -5.584  -5.962  1.00  0.00     0.217 C 
HETATM   21  O   UNL     1     -19.704  -4.699  -5.877  1.00  0.00    -0.274 OA
HETATM   22  N   UNL     1     -21.541  -5.579  -6.913  1.00  0.00    -0.359 N 
HETATM   23  H   UNL     1     -22.194  -6.352  -6.965  1.00  0.00     0.162 HD
BRANCH  22  24
HETATM   24  C   UNL     1     -21.682  -4.472  -7.849  1.00  0.00     0.148 C 
BRANCH  24  25
HETATM   25  C   UNL     1     -23.143  -4.084  -8.070  1.00  0.00     0.183 C 
BRANCH  25  26
HETATM   26  O   UNL     1     -23.911  -4.389  -6.906  1.00  0.00    -0.399 OA
HETATM   27  H   UNL     1     -23.271  -4.478  -6.178  1.00  0.00     0.209 HD
ENDBRANCH  25  26
ENDBRANCH  24  25
ENDBRANCH  22  24
ENDBRANCH  19  20
ENDBRANCH  18  19
ENDBRANCH  17  18
ENDBRANCH  16  17
ENDBRANCH   1  15
TORSDOF 17
ENDMDL
MODEL 8
REMARK VINA RESULT:      -6.7      2.406      4.517
REMARK  17 active torsions:
REMARK  status: ('A' for Active; 'I' for Inactive)
REMARK    1  A    between atoms: C_2  and  C_3 
REMARK    2  A    between atoms: C_3  and  C_4 
REMARK    3  A    between atoms: C_4  and  C_5 
REMARK    4  A    between atoms: C_5  and  C_6 
REMARK    5  A    between atoms: C_7  and  C_8 
REMARK    6  A    between atoms: C_8  and  C_9 
REMARK    7  A    between atoms: C_10  and  C_11 
REMARK    8  A    between atoms: C_11  and  C_12 
REMARK    9  A    between atoms: C_13  and  C_14 
REMARK   10  A    between atoms: C_14  and  C_15 
REMARK   11  A    between atoms: C_16  and  C_17 
REMARK   12  A    between atoms: C_17  and  C_18 
REMARK   13  A    between atoms: C_18  and  C_19 
REMARK   14  A    between atoms: C_19  and  C_20 
REMARK       I    between atoms: C_20  and  N_22 
REMARK   15  A    between atoms: N_22  and  C_23 
REMARK   16  A    between atoms: C_23  and  C_24 
REMARK   17  A    between atoms: C_24  and  O_25 
ROOT
HETATM    1  C   UNL     1     -22.247  -6.171  -2.061  1.00  0.00     0.053 C 
ENDROOT
BRANCH   1   2
HETATM    2  C   UNL     1     -21.943  -7.275  -1.094  1.00  0.00    -0.027 C 
HETATM    3  C   UNL     1     -22.446  -7.342   0.149  1.00  0.00    -0.027 C 
BRANCH   3   4
HETATM    4  C   UNL     1     -22.126  -8.441   1.116  1.00  0.00     0.053 C 
BRANCH   4   5
HETATM    5  C   UNL     1     -21.723  -9.696   0.398  1.00  0.00    -0.027 C 
HETATM    6  C   UNL     1     -20.683 -10.464   0.759  1.00  0.00    -0.027 C 
BRANCH   6   7
HETATM    7  C   UNL     1     -20.277 -11.714   0.040  1.00  0.00     0.053 C 
BRANCH   7   8
HETATM    8  C   UNL     1     -20.272 -11.500  -1.444  1.00  0.00    -0.027 C 
HETATM    9  C   UNL     1     -19.543 -10.559  -2.064  1.00  0.00    -0.030 C 
BRANCH   9  10
HETATM   10  C   UNL     1     -19.531 -10.363  -3.552  1.00  0.00     0.027 C 
BRANCH  10  11
HETATM   11  C   UNL     1     -18.276  -9.606  -3.994  1.00  0.00     0.004 C 
BRANCH  11  12
HETATM   12  C   UNL     1     -17.333  -9.364  -2.815  1.00  0.00    -0.000 C 
BRANCH  12  13
HETATM   13  C   UNL     1     -15.874  -9.596  -3.210  1.00  0.00    -0.005 C 
HETATM   14  C   UNL     1     -15.754  -9.989  -4.674  1.00  0.00     0.005 C 
ENDBRANCH  12  13
ENDBRANCH  11  12
ENDBRANCH  10  11
ENDBRANCH   9  10
ENDBRANCH   7   8
ENDBRANCH   6   7
ENDBRANCH   4   5
ENDBRANCH   3   4
ENDBRANCH   1   2
BRANCH   1  15
HETATM   15  C   UNL     1     -21.334  -6.227  -3.248  1.00  0.00    -0.027 C 
HETATM   16  C   UNL     1     -21.399  -7.172  -4.199  1.00  0.00    -0.030 C 
BRANCH  16  17
HETATM   17  C   UNL     1     -20.519  -7.196  -5.414  1.00  0.00     0.027 C 
BRANCH  17  18
HETATM   18  C   UNL     1     -21.134  -6.434  -6.588  1.00  0.00     0.013 C 
BRANCH  18  19
HETATM   19  C   UNL     1     -20.441  -5.102  -6.882  1.00  0.00     0.103 C 
BRANCH  19  20
HETATM   20  C   UNL     1     -20.681  -4.659  -8.311  1.00  0.00     0.217 C 
HETATM   21  O   UNL     1     -19.799  -4.587  -9.159  1.00  0.00    -0.274 OA
HETATM   22  N   UNL     1     -21.997  -4.356  -8.576  1.00  0.00    -0.359 N 
HETATM   23  H   UNL     1     -22.696  -4.466  -7.850  1.00  0.00     0.162 HD
BRANCH  22  24
HETATM   24  C   UNL     1     -22.408  -3.868  -9.884  1.00  0.00     0.148 C 
BRANCH  24  25
HETATM   25  C   UNL     1     -23.928  -3.854 -10.046  1.00  0.00     0.183 C 
BRANCH  25  26
HETATM   26  O   UNL     1     -24.542  -3.391  -8.843  1.00  0.00    -0.399 OA
HETATM   27  H   UNL     1     -23.821  -3.278  -8.200  1.00  0.00     0.209 HD
ENDBRANCH  25  26
ENDBRANCH  24  25
ENDBRANCH  22  24
ENDBRANCH  19  20
ENDBRANCH  18  19
ENDBRANCH  17  18
ENDBRANCH  16  17
ENDBRANCH   1  15
TORSDOF 17
ENDMDL
MODEL 9
REMARK VINA RESULT:      -6.7      1.923      3.635
REMARK  17 active torsions:
REMARK  status: ('A' for Active; 'I' for Inactive)
REMARK    1  A    between atoms: C_2  and  C_3 
REMARK    2  A    between atoms: C_3  and  C_4 
REMARK    3  A    between atoms: C_4  and  C_5 
REMARK    4  A    between atoms: C_5  and  C_6 
REMARK    5  A    between atoms: C_7  and  C_8 
REMARK    6  A    between atoms: C_8  and  C_9 
REMARK    7  A    between atoms: C_10  and  C_11 
REMARK    8  A    between atoms: C_11  and  C_12 
REMARK    9  A    between atoms: C_13  and  C_14 
REMARK   10  A    between atoms: C_14  and  C_15 
REMARK   11  A    between atoms: C_16  and  C_17 
REMARK   12  A    between atoms: C_17  and  C_18 
REMARK   13  A    between atoms: C_18  and  C_19 
REMARK   14  A    between atoms: C_19  and  C_20 
REMARK       I    between atoms: C_20  and  N_22 
REMARK   15  A    between atoms: N_22  and  C_23 
REMARK   16  A    between atoms: C_23  and  C_24 
REMARK   17  A    between atoms: C_24  and  O_25 
ROOT
HETATM    1  C   UNL     1     -21.553  -7.619  -3.316  1.00  0.00     0.053 C 
ENDROOT
BRANCH   1   2
HETATM    2  C   UNL     1     -20.656  -8.818  -3.240  1.00  0.00    -0.027 C 
HETATM    3  C   UNL     1     -19.653  -8.949  -2.357  1.00  0.00    -0.027 C 
BRANCH   3   4
HETATM    4  C   UNL     1     -18.752 -10.144  -2.296  1.00  0.00     0.053 C 
BRANCH   4   5
HETATM    5  C   UNL     1     -19.445 -11.316  -1.665  1.00  0.00    -0.027 C 
HETATM    6  C   UNL     1     -19.083 -11.856  -0.490  1.00  0.00    -0.027 C 
BRANCH   6   7
HETATM    7  C   UNL     1     -19.772 -13.029   0.138  1.00  0.00     0.053 C 
BRANCH   7   8
HETATM    8  C   UNL     1     -21.251 -12.972  -0.100  1.00  0.00    -0.027 C 
HETATM    9  C   UNL     1     -22.112 -12.302   0.682  1.00  0.00    -0.030 C 
BRANCH   9  10
HETATM   10  C   UNL     1     -23.589 -12.235   0.428  1.00  0.00     0.027 C 
BRANCH  10  11
HETATM   11  C   UNL     1     -23.940 -11.034  -0.453  1.00  0.00     0.004 C 
BRANCH  11  12
HETATM   12  C   UNL     1     -22.818  -9.995  -0.444  1.00  0.00    -0.000 C 
BRANCH  12  13
HETATM   13  C   UNL     1     -23.232  -8.733   0.313  1.00  0.00    -0.005 C 
HETATM   14  C   UNL     1     -22.108  -7.710   0.337  1.00  0.00     0.005 C 
ENDBRANCH  12  13
ENDBRANCH  11  12
ENDBRANCH  10  11
ENDBRANCH   9  10
ENDBRANCH   7   8
ENDBRANCH   6   7
ENDBRANCH   4   5
ENDBRANCH   3   4
ENDBRANCH   1   2
BRANCH   1  15
HETATM   15  C   UNL     1     -21.628  -7.090  -4.716  1.00  0.00    -0.027 C 
HETATM   16  C   UNL     1     -20.612  -6.472  -5.338  1.00  0.00    -0.030 C 
BRANCH  16  17
HETATM   17  C   UNL     1     -20.672  -5.991  -6.758  1.00  0.00     0.027 C 
BRANCH  17  18
HETATM   18  C   UNL     1     -20.233  -4.532  -6.893  1.00  0.00     0.013 C 
BRANCH  18  19
HETATM   19  C   UNL     1     -21.381  -3.578  -7.230  1.00  0.00     0.103 C 
BRANCH  19  20
HETATM   20  C   UNL     1     -22.027  -3.937  -8.553  1.00  0.00     0.217 C 
HETATM   21  O   UNL     1     -21.409  -4.039  -9.606  1.00  0.00    -0.274 OA
HETATM   22  N   UNL     1     -23.382  -4.155  -8.458  1.00  0.00    -0.359 N 
HETATM   23  H   UNL     1     -23.841  -4.093  -7.557  1.00  0.00     0.162 HD
BRANCH  22  24
HETATM   24  C   UNL     1     -24.178  -4.465  -9.637  1.00  0.00     0.148 C 
BRANCH  24  25
HETATM   25  C   UNL     1     -24.538  -3.215 -10.438  1.00  0.00     0.183 C 
BRANCH  25  26
HETATM   26  O   UNL     1     -23.689  -3.106 -11.580  1.00  0.00    -0.399 OA
HETATM   27  H   UNL     1     -24.201  -3.457 -12.329  1.00  0.00     0.209 HD
ENDBRANCH  25  26
ENDBRANCH  24  25
ENDBRANCH  22  24
ENDBRANCH  19  20
ENDBRANCH  18  19
ENDBRANCH  17  18
ENDBRANCH  16  17
ENDBRANCH   1  15
TORSDOF 17
ENDMDL
