MODEL 1
REMARK VINA RESULT:      -8.7      0.000      0.000
REMARK  4 active torsions:
REMARK  status: ('A' for Active; 'I' for Inactive)
REMARK    1  A    between atoms: O_2  and  C_3 
REMARK    2  A    between atoms: C_7  and  N_8 
REMARK       I    between atoms: N_8  and  C_9 
REMARK    3  A    between atoms: C_9  and  C_11 
REMARK    4  A    between atoms: C_12  and  C_13 
ROOT
HETATM    1  N   UNL     1     -21.495  -5.544  -7.646  1.00  0.00    -0.324 N 
HETATM    2  C   UNL     1     -20.930  -5.209  -6.430  1.00  0.00     0.245 C 
HETATM    3  O   UNL     1     -20.372  -4.154  -6.152  1.00  0.00    -0.268 OA
HETATM    4  H   UNL     1     -21.951  -6.443  -7.734  1.00  0.00     0.169 HD
ENDROOT
BRANCH   2   5
HETATM    5  C   UNL     1     -21.047  -6.275  -5.392  1.00  0.00     0.075 C 
HETATM    6  C   UNL     1     -21.229  -5.871  -4.121  1.00  0.00     0.017 C 
BRANCH   6   7
HETATM    7  C   UNL     1     -21.345  -6.723  -2.932  1.00  0.00    -0.036 A 
HETATM    8  C   UNL     1     -20.565  -7.870  -2.748  1.00  0.00     0.013 A 
HETATM    9  C   UNL     1     -20.653  -8.604  -1.560  1.00  0.00     0.024 A 
HETATM   10  C   UNL     1     -21.515  -8.188  -0.547  1.00  0.00     0.034 A 
HETATM   11 CL   UNL     1     -21.606  -9.083   0.919  1.00  0.00    -0.084 Cl
HETATM   12  C   UNL     1     -22.289  -7.045  -0.709  1.00  0.00     0.024 A 
HETATM   13  C   UNL     1     -22.201  -6.313  -1.896  1.00  0.00     0.013 A 
ENDBRANCH   6   7
ENDBRANCH   2   5
BRANCH   1  14
HETATM   14  C   UNL     1     -21.543  -4.706  -8.792  1.00  0.00     0.037 A 
HETATM   15  C   UNL     1     -20.398  -4.268  -9.464  1.00  0.00     0.029 A 
HETATM   16  C   UNL     1     -20.488  -3.405 -10.554  1.00  0.00     0.005 A 
HETATM   17  C   UNL     1     -21.731  -2.967 -10.998  1.00  0.00     0.037 A 
HETATM   18  C   UNL     1     -22.890  -3.405 -10.360  1.00  0.00     0.070 A 
HETATM   19  C   UNL     1     -22.792  -4.280  -9.264  1.00  0.00     0.066 A 
BRANCH  18  20
HETATM   20  O   UNL     1     -24.165  -3.042 -10.711  1.00  0.00    -0.356 OA
HETATM   21  C   UNL     1     -25.161  -3.182  -9.699  1.00  0.00     0.210 C 
ENDBRANCH  18  20
ENDBRANCH   1  14
TORSDOF 4
ENDMDL
MODEL 2
REMARK VINA RESULT:      -8.0      4.104      8.932
REMARK  4 active torsions:
REMARK  status: ('A' for Active; 'I' for Inactive)
REMARK    1  A    between atoms: O_2  and  C_3 
REMARK    2  A    between atoms: C_7  and  N_8 
REMARK       I    between atoms: N_8  and  C_9 
REMARK    3  A    between atoms: C_9  and  C_11 
REMARK    4  A    between atoms: C_12  and  C_13 
ROOT
HETATM    1  N   UNL     1     -21.129  -6.984  -3.460  1.00  0.00    -0.324 N 
HETATM    2  C   UNL     1     -21.241  -7.738  -4.613  1.00  0.00     0.245 C 
HETATM    3  O   UNL     1     -21.612  -8.903  -4.688  1.00  0.00    -0.268 OA
HETATM    4  H   UNL     1     -20.835  -6.020  -3.542  1.00  0.00     0.169 HD
ENDROOT
BRANCH   2   5
HETATM    5  C   UNL     1     -20.861  -7.005  -5.857  1.00  0.00     0.075 C 
HETATM    6  C   UNL     1     -21.674  -6.005  -6.246  1.00  0.00     0.017 C 
BRANCH   6   7
HETATM    7  C   UNL     1     -21.527  -5.163  -7.439  1.00  0.00    -0.036 A 
HETATM    8  C   UNL     1     -20.361  -5.146  -8.210  1.00  0.00     0.013 A 
HETATM    9  C   UNL     1     -20.299  -4.389  -9.386  1.00  0.00     0.024 A 
HETATM   10  C   UNL     1     -21.408  -3.653  -9.799  1.00  0.00     0.034 A 
HETATM   11 CL   UNL     1     -21.334  -2.738 -11.253  1.00  0.00    -0.084 Cl
HETATM   12  C   UNL     1     -22.579  -3.668  -9.049  1.00  0.00     0.024 A 
HETATM   13  C   UNL     1     -22.639  -4.424  -7.876  1.00  0.00     0.013 A 
ENDBRANCH   6   7
ENDBRANCH   2   5
BRANCH   1  14
HETATM   14  C   UNL     1     -21.449  -7.430  -2.150  1.00  0.00     0.037 A 
HETATM   15  C   UNL     1     -22.323  -6.742  -1.302  1.00  0.00     0.029 A 
HETATM   16  C   UNL     1     -22.569  -7.188  -0.006  1.00  0.00     0.005 A 
HETATM   17  C   UNL     1     -21.950  -8.339   0.467  1.00  0.00     0.037 A 
HETATM   18  C   UNL     1     -21.091  -9.058  -0.364  1.00  0.00     0.070 A 
HETATM   19  C   UNL     1     -20.851  -8.605  -1.673  1.00  0.00     0.066 A 
BRANCH  18  20
HETATM   20  O   UNL     1     -20.429 -10.204  -0.006  1.00  0.00    -0.356 OA
HETATM   21  C   UNL     1     -20.738 -11.373  -0.764  1.00  0.00     0.210 C 
ENDBRANCH  18  20
ENDBRANCH   1  14
TORSDOF 4
ENDMDL
MODEL 3
REMARK VINA RESULT:      -7.7      4.239      8.983
REMARK  4 active torsions:
REMARK  status: ('A' for Active; 'I' for Inactive)
REMARK    1  A    between atoms: O_2  and  C_3 
REMARK    2  A    between atoms: C_7  and  N_8 
REMARK       I    between atoms: N_8  and  C_9 
REMARK    3  A    between atoms: C_9  and  C_11 
REMARK    4  A    between atoms: C_12  and  C_13 
ROOT
HETATM    1  N   UNL     1     -21.105  -7.786  -3.053  1.00  0.00    -0.324 N 
HETATM    2  C   UNL     1     -21.646  -6.527  -3.239  1.00  0.00     0.245 C 
HETATM    3  O   UNL     1     -22.460  -5.970  -2.512  1.00  0.00    -0.268 OA
HETATM    4  H   UNL     1     -20.418  -8.118  -3.717  1.00  0.00     0.169 HD
ENDROOT
BRANCH   2   5
HETATM    5  C   UNL     1     -21.147  -5.826  -4.458  1.00  0.00     0.075 C 
HETATM    6  C   UNL     1     -21.936  -5.863  -5.548  1.00  0.00     0.017 C 
BRANCH   6   7
HETATM    7  C   UNL     1     -21.652  -5.276  -6.863  1.00  0.00    -0.036 A 
HETATM    8  C   UNL     1     -22.553  -4.433  -7.521  1.00  0.00     0.013 A 
HETATM    9  C   UNL     1     -22.203  -3.832  -8.735  1.00  0.00     0.024 A 
HETATM   10  C   UNL     1     -20.947  -4.065  -9.291  1.00  0.00     0.034 A 
HETATM   11 CL   UNL     1     -20.514  -3.310 -10.775  1.00  0.00    -0.084 Cl
HETATM   12  C   UNL     1     -20.035  -4.892  -8.644  1.00  0.00     0.024 A 
HETATM   13  C   UNL     1     -20.386  -5.492  -7.432  1.00  0.00     0.013 A 
ENDBRANCH   6   7
ENDBRANCH   2   5
BRANCH   1  14
HETATM   14  C   UNL     1     -21.390  -8.652  -1.964  1.00  0.00     0.037 A 
HETATM   15  C   UNL     1     -21.095  -8.330  -0.636  1.00  0.00     0.029 A 
HETATM   16  C   UNL     1     -21.345  -9.230   0.397  1.00  0.00     0.005 A 
HETATM   17  C   UNL     1     -21.904 -10.473   0.120  1.00  0.00     0.037 A 
HETATM   18  C   UNL     1     -22.229 -10.813  -1.192  1.00  0.00     0.070 A 
HETATM   19  C   UNL     1     -21.978  -9.897  -2.229  1.00  0.00     0.066 A 
BRANCH  18  20
HETATM   20  O   UNL     1     -22.783 -12.005  -1.581  1.00  0.00    -0.356 OA
HETATM   21  C   UNL     1     -23.881 -12.474  -0.799  1.00  0.00     0.210 C 
ENDBRANCH  18  20
ENDBRANCH   1  14
TORSDOF 4
ENDMDL
MODEL 4
REMARK VINA RESULT:      -7.4      2.686      3.942
REMARK  4 active torsions:
REMARK  status: ('A' for Active; 'I' for Inactive)
REMARK    1  A    between atoms: O_2  and  C_3 
REMARK    2  A    between atoms: C_7  and  N_8 
REMARK       I    between atoms: N_8  and  C_9 
REMARK    3  A    between atoms: C_9  and  C_11 
REMARK    4  A    between atoms: C_12  and  C_13 
ROOT
HETATM    1  N   UNL     1     -21.187  -7.396  -4.815  1.00  0.00    -0.324 N 
HETATM    2  C   UNL     1     -21.312  -7.334  -3.440  1.00  0.00     0.245 C 
HETATM    3  O   UNL     1     -21.332  -6.318  -2.755  1.00  0.00    -0.268 OA
HETATM    4  H   UNL     1     -21.214  -8.303  -5.261  1.00  0.00     0.169 HD
ENDROOT
BRANCH   2   5
HETATM    5  C   UNL     1     -21.435  -8.668  -2.782  1.00  0.00     0.075 C 
HETATM    6  C   UNL     1     -22.015  -8.698  -1.568  1.00  0.00     0.017 C 
BRANCH   6   7
HETATM    7  C   UNL     1     -22.223  -9.875  -0.718  1.00  0.00    -0.036 A 
HETATM    8  C   UNL     1     -23.448 -10.547  -0.647  1.00  0.00     0.013 A 
HETATM    9  C   UNL     1     -23.575 -11.714   0.114  1.00  0.00     0.024 A 
HETATM   10  C   UNL     1     -22.473 -12.219   0.801  1.00  0.00     0.034 A 
HETATM   11 CL   UNL     1     -22.628 -13.664   1.721  1.00  0.00    -0.084 Cl
HETATM   12  C   UNL     1     -21.245 -11.571   0.733  1.00  0.00     0.024 A 
HETATM   13  C   UNL     1     -21.121 -10.405  -0.027  1.00  0.00     0.013 A 
ENDBRANCH   6   7
ENDBRANCH   2   5
BRANCH   1  14
HETATM   14  C   UNL     1     -21.079  -6.277  -5.683  1.00  0.00     0.037 A 
HETATM   15  C   UNL     1     -19.862  -5.653  -5.975  1.00  0.00     0.029 A 
HETATM   16  C   UNL     1     -19.807  -4.526  -6.792  1.00  0.00     0.005 A 
HETATM   17  C   UNL     1     -20.973  -4.005  -7.342  1.00  0.00     0.037 A 
HETATM   18  C   UNL     1     -22.198  -4.619  -7.086  1.00  0.00     0.070 A 
HETATM   19  C   UNL     1     -22.245  -5.759  -6.265  1.00  0.00     0.066 A 
BRANCH  18  20
HETATM   20  O   UNL     1     -23.406  -4.195  -7.574  1.00  0.00    -0.356 OA
HETATM   21  C   UNL     1     -23.470  -3.953  -8.979  1.00  0.00     0.210 C 
ENDBRANCH  18  20
ENDBRANCH   1  14
TORSDOF 4
ENDMDL
MODEL 5
REMARK VINA RESULT:      -7.3      4.398      9.363
REMARK  4 active torsions:
REMARK  status: ('A' for Active; 'I' for Inactive)
REMARK    1  A    between atoms: O_2  and  C_3 
REMARK    2  A    between atoms: C_7  and  N_8 
REMARK       I    between atoms: N_8  and  C_9 
REMARK    3  A    between atoms: C_9  and  C_11 
REMARK    4  A    between atoms: C_12  and  C_13 
ROOT
HETATM    1  N   UNL     1     -21.382  -8.329  -2.299  1.00  0.00    -0.324 N 
HETATM    2  C   UNL     1     -21.832  -7.035  -2.116  1.00  0.00     0.245 C 
HETATM    3  O   UNL     1     -22.480  -6.618  -1.163  1.00  0.00    -0.268 OA
HETATM    4  H   UNL     1     -20.831  -8.535  -3.122  1.00  0.00     0.169 HD
ENDROOT
BRANCH   2   5
HETATM    5  C   UNL     1     -21.458  -6.100  -3.217  1.00  0.00     0.075 C 
HETATM    6  C   UNL     1     -21.598  -6.555  -4.476  1.00  0.00     0.017 C 
BRANCH   6   7
HETATM    7  C   UNL     1     -21.273  -5.838  -5.714  1.00  0.00    -0.036 A 
HETATM    8  C   UNL     1     -19.980  -5.799  -6.246  1.00  0.00     0.013 A 
HETATM    9  C   UNL     1     -19.735  -5.172  -7.473  1.00  0.00     0.024 A 
HETATM   10  C   UNL     1     -20.786  -4.590  -8.178  1.00  0.00     0.034 A 
HETATM   11 CL   UNL     1     -20.485  -3.836  -9.694  1.00  0.00    -0.084 Cl
HETATM   12  C   UNL     1     -22.080  -4.629  -7.669  1.00  0.00     0.024 A 
HETATM   13  C   UNL     1     -22.322  -5.254  -6.444  1.00  0.00     0.013 A 
ENDBRANCH   6   7
ENDBRANCH   2   5
BRANCH   1  14
HETATM   14  C   UNL     1     -21.578  -9.406  -1.394  1.00  0.00     0.037 A 
HETATM   15  C   UNL     1     -22.843  -9.894  -1.054  1.00  0.00     0.029 A 
HETATM   16  C   UNL     1     -22.993 -10.919  -0.123  1.00  0.00     0.005 A 
HETATM   17  C   UNL     1     -21.876 -11.484   0.481  1.00  0.00     0.037 A 
HETATM   18  C   UNL     1     -20.601 -11.032   0.144  1.00  0.00     0.070 A 
HETATM   19  C   UNL     1     -20.456 -10.000  -0.800  1.00  0.00     0.066 A 
BRANCH  18  20
HETATM   20  O   UNL     1     -19.431 -11.513   0.673  1.00  0.00    -0.356 OA
HETATM   21  C   UNL     1     -18.830 -12.607  -0.017  1.00  0.00     0.210 C 
ENDBRANCH  18  20
ENDBRANCH   1  14
TORSDOF 4
ENDMDL
MODEL 6
REMARK VINA RESULT:      -7.3      4.144      8.755
REMARK  4 active torsions:
REMARK  status: ('A' for Active; 'I' for Inactive)
REMARK    1  A    between atoms: O_2  and  C_3 
REMARK    2  A    between atoms: C_7  and  N_8 
REMARK       I    between atoms: N_8  and  C_9 
REMARK    3  A    between atoms: C_9  and  C_11 
REMARK    4  A    between atoms: C_12  and  C_13 
ROOT
HETATM    1  N   UNL     1     -21.254  -8.239  -4.189  1.00  0.00    -0.324 N 
HETATM    2  C   UNL     1     -21.462  -6.877  -4.068  1.00  0.00     0.245 C 
HETATM    3  O   UNL     1     -21.276  -6.199  -3.065  1.00  0.00    -0.268 OA
HETATM    4  H   UNL     1     -21.421  -8.674  -5.087  1.00  0.00     0.169 HD
ENDROOT
BRANCH   2   5
HETATM    5  C   UNL     1     -21.957  -6.226  -5.317  1.00  0.00     0.075 C 
HETATM    6  C   UNL     1     -21.043  -5.602  -6.082  1.00  0.00     0.017 C 
BRANCH   6   7
HETATM    7  C   UNL     1     -21.288  -4.872  -7.331  1.00  0.00    -0.036 A 
HETATM    8  C   UNL     1     -20.336  -4.784  -8.352  1.00  0.00     0.013 A 
HETATM    9  C   UNL     1     -20.646  -4.147  -9.559  1.00  0.00     0.024 A 
HETATM   10  C   UNL     1     -21.914  -3.604  -9.753  1.00  0.00     0.034 A 
HETATM   11 CL   UNL     1     -22.298  -2.838 -11.244  1.00  0.00    -0.084 Cl
HETATM   12  C   UNL     1     -22.877  -3.693  -8.753  1.00  0.00     0.024 A 
HETATM   13  C   UNL     1     -22.565  -4.328  -7.548  1.00  0.00     0.013 A 
ENDBRANCH   6   7
ENDBRANCH   2   5
BRANCH   1  14
HETATM   14  C   UNL     1     -20.765  -9.092  -3.165  1.00  0.00     0.037 A 
HETATM   15  C   UNL     1     -19.445  -9.550  -3.119  1.00  0.00     0.029 A 
HETATM   16  C   UNL     1     -19.020 -10.426  -2.123  1.00  0.00     0.005 A 
HETATM   17  C   UNL     1     -19.910 -10.857  -1.146  1.00  0.00     0.037 A 
HETATM   18  C   UNL     1     -21.227 -10.400  -1.153  1.00  0.00     0.070 A 
HETATM   19  C   UNL     1     -21.647  -9.511  -2.158  1.00  0.00     0.066 A 
BRANCH  18  20
HETATM   20  O   UNL     1     -22.187 -10.755  -0.242  1.00  0.00    -0.356 OA
HETATM   21  C   UNL     1     -23.413 -10.028  -0.302  1.00  0.00     0.210 C 
ENDBRANCH  18  20
ENDBRANCH   1  14
TORSDOF 4
ENDMDL
MODEL 7
REMARK VINA RESULT:      -7.2      4.101      8.901
REMARK  4 active torsions:
REMARK  status: ('A' for Active; 'I' for Inactive)
REMARK    1  A    between atoms: O_2  and  C_3 
REMARK    2  A    between atoms: C_7  and  N_8 
REMARK       I    between atoms: N_8  and  C_9 
REMARK    3  A    between atoms: C_9  and  C_11 
REMARK    4  A    between atoms: C_12  and  C_13 
ROOT
HETATM    1  N   UNL     1     -21.553  -8.110  -4.079  1.00  0.00    -0.324 N 
HETATM    2  C   UNL     1     -21.858  -6.766  -3.969  1.00  0.00     0.245 C 
HETATM    3  O   UNL     1     -21.810  -6.090  -2.948  1.00  0.00    -0.268 OA
HETATM    4  H   UNL     1     -21.608  -8.543  -4.992  1.00  0.00     0.169 HD
ENDROOT
BRANCH   2   5
HETATM    5  C   UNL     1     -22.275  -6.131  -5.253  1.00  0.00     0.075 C 
HETATM    6  C   UNL     1     -21.293  -5.735  -6.084  1.00  0.00     0.017 C 
BRANCH   6   7
HETATM    7  C   UNL     1     -21.451  -5.067  -7.381  1.00  0.00    -0.036 A 
HETATM    8  C   UNL     1     -22.609  -4.366  -7.732  1.00  0.00     0.013 A 
HETATM    9  C   UNL     1     -22.680  -3.676  -8.947  1.00  0.00     0.024 A 
HETATM   10  C   UNL     1     -21.588  -3.677  -9.813  1.00  0.00     0.034 A 
HETATM   11 CL   UNL     1     -21.672  -2.813 -11.298  1.00  0.00    -0.084 Cl
HETATM   12  C   UNL     1     -20.425  -4.360  -9.475  1.00  0.00     0.024 A 
HETATM   13  C   UNL     1     -20.356  -5.049  -8.261  1.00  0.00     0.013 A 
ENDBRANCH   6   7
ENDBRANCH   2   5
BRANCH   1  14
HETATM   14  C   UNL     1     -21.108  -8.944  -3.019  1.00  0.00     0.037 A 
HETATM   15  C   UNL     1     -21.913  -9.283  -1.927  1.00  0.00     0.029 A 
HETATM   16  C   UNL     1     -21.420 -10.063  -0.884  1.00  0.00     0.005 A 
HETATM   17  C   UNL     1     -20.110 -10.527  -0.916  1.00  0.00     0.037 A 
HETATM   18  C   UNL     1     -19.291 -10.223  -2.003  1.00  0.00     0.070 A 
HETATM   19  C   UNL     1     -19.797  -9.439  -3.055  1.00  0.00     0.066 A 
BRANCH  18  20
HETATM   20  O   UNL     1     -17.988 -10.625  -2.143  1.00  0.00    -0.356 OA
HETATM   21  C   UNL     1     -17.373 -10.344  -3.399  1.00  0.00     0.210 C 
ENDBRANCH  18  20
ENDBRANCH   1  14
TORSDOF 4
ENDMDL
MODEL 8
REMARK VINA RESULT:      -7.0      1.755      2.386
REMARK  4 active torsions:
REMARK  status: ('A' for Active; 'I' for Inactive)
REMARK    1  A    between atoms: O_2  and  C_3 
REMARK    2  A    between atoms: C_7  and  N_8 
REMARK       I    between atoms: N_8  and  C_9 
REMARK    3  A    between atoms: C_9  and  C_11 
REMARK    4  A    between atoms: C_12  and  C_13 
ROOT
HETATM    1  N   UNL     1     -21.186  -4.963  -7.633  1.00  0.00    -0.324 N 
HETATM    2  C   UNL     1     -22.148  -5.103  -6.650  1.00  0.00     0.245 C 
HETATM    3  O   UNL     1     -23.287  -4.652  -6.676  1.00  0.00    -0.268 OA
HETATM    4  H   UNL     1     -20.290  -5.412  -7.498  1.00  0.00     0.169 HD
ENDROOT
BRANCH   2   5
HETATM    5  C   UNL     1     -21.697  -5.896  -5.468  1.00  0.00     0.075 C 
HETATM    6  C   UNL     1     -20.824  -6.893  -5.702  1.00  0.00     0.017 C 
BRANCH   6   7
HETATM    7  C   UNL     1     -20.260  -7.821  -4.714  1.00  0.00    -0.036 A 
HETATM    8  C   UNL     1     -20.738  -7.909  -3.403  1.00  0.00     0.013 A 
HETATM    9  C   UNL     1     -20.224  -8.867  -2.523  1.00  0.00     0.024 A 
HETATM   10  C   UNL     1     -19.235  -9.749  -2.954  1.00  0.00     0.034 A 
HETATM   11 CL   UNL     1     -18.618 -10.937  -1.875  1.00  0.00    -0.084 Cl
HETATM   12  C   UNL     1     -18.756  -9.683  -4.258  1.00  0.00     0.024 A 
HETATM   13  C   UNL     1     -19.270  -8.725  -5.135  1.00  0.00     0.013 A 
ENDBRANCH   6   7
ENDBRANCH   2   5
BRANCH   1  14
HETATM   14  C   UNL     1     -21.361  -4.279  -8.865  1.00  0.00     0.037 A 
HETATM   15  C   UNL     1     -20.292  -3.846  -9.655  1.00  0.00     0.029 A 
HETATM   16  C   UNL     1     -20.509  -3.134 -10.833  1.00  0.00     0.005 A 
HETATM   17  C   UNL     1     -21.804  -2.847 -11.248  1.00  0.00     0.037 A 
HETATM   18  C   UNL     1     -22.890  -3.286 -10.492  1.00  0.00     0.070 A 
HETATM   19  C   UNL     1     -22.664  -4.009  -9.307  1.00  0.00     0.066 A 
BRANCH  18  20
HETATM   20  O   UNL     1     -24.206  -3.063 -10.804  1.00  0.00    -0.356 OA
HETATM   21  C   UNL     1     -25.156  -3.363  -9.782  1.00  0.00     0.210 C 
ENDBRANCH  18  20
ENDBRANCH   1  14
TORSDOF 4
ENDMDL
MODEL 9
REMARK VINA RESULT:      -6.8      2.345      2.854
REMARK  4 active torsions:
REMARK  status: ('A' for Active; 'I' for Inactive)
REMARK    1  A    between atoms: O_2  and  C_3 
REMARK    2  A    between atoms: C_7  and  N_8 
REMARK       I    between atoms: N_8  and  C_9 
REMARK    3  A    between atoms: C_9  and  C_11 
REMARK    4  A    between atoms: C_12  and  C_13 
ROOT
HETATM    1  N   UNL     1     -20.722  -6.019  -6.595  1.00  0.00    -0.324 N 
HETATM    2  C   UNL     1     -21.580  -6.293  -5.547  1.00  0.00     0.245 C 
HETATM    3  O   UNL     1     -22.738  -5.910  -5.435  1.00  0.00    -0.268 OA
HETATM    4  H   UNL     1     -19.794  -6.423  -6.578  1.00  0.00     0.169 HD
ENDROOT
BRANCH   2   5
HETATM    5  C   UNL     1     -20.981  -7.149  -4.481  1.00  0.00     0.075 C 
HETATM    6  C   UNL     1     -20.030  -8.021  -4.863  1.00  0.00     0.017 C 
BRANCH   6   7
HETATM    7  C   UNL     1     -19.318  -8.980  -4.009  1.00  0.00    -0.036 A 
HETATM    8  C   UNL     1     -18.049  -9.474  -4.328  1.00  0.00     0.013 A 
HETATM    9  C   UNL     1     -17.376 -10.323  -3.441  1.00  0.00     0.024 A 
HETATM   10  C   UNL     1     -17.966 -10.672  -2.229  1.00  0.00     0.034 A 
HETATM   11 CL   UNL     1     -17.127 -11.700  -1.134  1.00  0.00    -0.084 Cl
HETATM   12  C   UNL     1     -19.222 -10.181  -1.892  1.00  0.00     0.024 A 
HETATM   13  C   UNL     1     -19.893  -9.335  -2.778  1.00  0.00     0.013 A 
ENDBRANCH   6   7
ENDBRANCH   2   5
BRANCH   1  14
HETATM   14  C   UNL     1     -21.045  -5.251  -7.746  1.00  0.00     0.037 A 
HETATM   15  C   UNL     1     -20.098  -4.877  -8.704  1.00  0.00     0.029 A 
HETATM   16  C   UNL     1     -20.449  -4.080  -9.791  1.00  0.00     0.005 A 
HETATM   17  C   UNL     1     -21.761  -3.648  -9.946  1.00  0.00     0.037 A 
HETATM   18  C   UNL     1     -22.731  -4.024  -9.018  1.00  0.00     0.070 A 
HETATM   19  C   UNL     1     -22.371  -4.832  -7.926  1.00  0.00     0.066 A 
BRANCH  18  20
HETATM   20  O   UNL     1     -24.052  -3.659  -9.070  1.00  0.00    -0.356 OA
HETATM   21  C   UNL     1     -24.571  -3.354 -10.364  1.00  0.00     0.210 C 
ENDBRANCH  18  20
ENDBRANCH   1  14
TORSDOF 4
ENDMDL
