MODEL 1
REMARK VINA RESULT:      -7.1      0.000      0.000
REMARK  17 active torsions:
REMARK  status: ('A' for Active; 'I' for Inactive)
REMARK    1  A    between atoms: C_2  and  C_3 
REMARK    2  A    between atoms: C_3  and  C_4 
REMARK    3  A    between atoms: C_4  and  C_5 
REMARK    4  A    between atoms: C_5  and  C_6 
REMARK    5  A    between atoms: C_7  and  C_8 
REMARK    6  A    between atoms: C_8  and  C_9 
REMARK    7  A    between atoms: C_10  and  C_11 
REMARK    8  A    between atoms: C_11  and  C_12 
REMARK    9  A    between atoms: C_13  and  C_14 
REMARK   10  A    between atoms: C_15  and  C_16 
REMARK   11  A    between atoms: C_16  and  C_17 
REMARK   12  A    between atoms: C_16  and  O_23 
REMARK   13  A    between atoms: C_17  and  C_18 
REMARK   14  A    between atoms: C_18  and  C_19 
REMARK   15  A    between atoms: C_19  and  C_20 
REMARK   16  A    between atoms: C_20  and  O_22 
REMARK   17  A    between atoms: O_23  and  O_24 
ROOT
HETATM    1  C   UNL     1     -22.336  -7.220  -0.896  1.00  0.00    -0.023 C 
HETATM    2  C   UNL     1     -21.290  -7.353  -1.727  1.00  0.00    -0.004 C 
ENDROOT
BRANCH   2   3
HETATM    3  C   UNL     1     -21.220  -6.668  -2.994  1.00  0.00    -0.002 C 
HETATM    4  C   UNL     1     -21.701  -7.186  -4.135  1.00  0.00     0.008 C 
BRANCH   4   5
HETATM    5  C   UNL     1     -21.619  -6.477  -5.463  1.00  0.00     0.183 C 
BRANCH   5   6
HETATM    6  C   UNL     1     -20.666  -5.277  -5.357  1.00  0.00     0.040 C 
BRANCH   6   7
HETATM    7  C   UNL     1     -20.338  -4.602  -6.694  1.00  0.00     0.013 C 
BRANCH   7   8
HETATM    8  C   UNL     1     -21.366  -3.564  -7.141  1.00  0.00     0.110 C 
BRANCH   8   9
HETATM    9  C   UNL     1     -22.369  -4.163  -8.102  1.00  0.00     0.139 C 
HETATM   10  O   UNL     1     -22.118  -4.580  -9.220  1.00  0.00    -0.650 OA
BRANCH   9  11
HETATM   11  O   UNL     1     -23.622  -4.196  -7.585  1.00  0.00    -0.776 OA
HETATM   12  H   UNL     1     -24.320  -3.963  -8.221  1.00  0.00     0.167 HD
ENDBRANCH   9  11
ENDBRANCH   8   9
ENDBRANCH   7   8
ENDBRANCH   6   7
ENDBRANCH   5   6
BRANCH   5  13
HETATM   13  O   UNL     1     -21.104  -7.379  -6.450  1.00  0.00    -0.234 OA
BRANCH  13  14
HETATM   14  O   UNL     1     -19.879  -7.948  -5.898  1.00  0.00    -0.250 OA
HETATM   15  H   UNL     1     -19.522  -8.267  -6.748  1.00  0.00     0.253 HD
ENDBRANCH  13  14
ENDBRANCH   5  13
ENDBRANCH   4   5
ENDBRANCH   2   3
BRANCH   1  16
HETATM   16  C   UNL     1     -22.447  -7.920   0.426  1.00  0.00     0.054 C 
BRANCH  16  17
HETATM   17  C   UNL     1     -22.599  -9.403   0.244  1.00  0.00    -0.027 C 
HETATM   18  C   UNL     1     -23.753 -10.003  -0.093  1.00  0.00    -0.027 C 
BRANCH  18  19
HETATM   19  C   UNL     1     -23.902 -11.479  -0.308  1.00  0.00     0.053 C 
BRANCH  19  20
HETATM   20  C   UNL     1     -22.859 -12.246   0.452  1.00  0.00    -0.027 C 
HETATM   21  C   UNL     1     -23.135 -13.225   1.323  1.00  0.00    -0.030 C 
BRANCH  21  22
HETATM   22  C   UNL     1     -22.084 -13.997   2.071  1.00  0.00     0.027 C 
BRANCH  22  23
HETATM   23  C   UNL     1     -22.720 -15.065   2.961  1.00  0.00     0.004 C 
BRANCH  23  24
HETATM   24  C   UNL     1     -24.206 -14.783   3.179  1.00  0.00    -0.000 C 
BRANCH  24  25
HETATM   25  C   UNL     1     -24.667 -15.256   4.556  1.00  0.00    -0.005 C 
HETATM   26  C   UNL     1     -25.975 -16.027   4.464  1.00  0.00     0.005 C 
ENDBRANCH  24  25
ENDBRANCH  23  24
ENDBRANCH  22  23
ENDBRANCH  21  22
ENDBRANCH  19  20
ENDBRANCH  18  19
ENDBRANCH  16  17
ENDBRANCH   1  16
TORSDOF 17
ENDMDL
MODEL 2
REMARK VINA RESULT:      -7.1      2.533      3.570
REMARK  17 active torsions:
REMARK  status: ('A' for Active; 'I' for Inactive)
REMARK    1  A    between atoms: C_2  and  C_3 
REMARK    2  A    between atoms: C_3  and  C_4 
REMARK    3  A    between atoms: C_4  and  C_5 
REMARK    4  A    between atoms: C_5  and  C_6 
REMARK    5  A    between atoms: C_7  and  C_8 
REMARK    6  A    between atoms: C_8  and  C_9 
REMARK    7  A    between atoms: C_10  and  C_11 
REMARK    8  A    between atoms: C_11  and  C_12 
REMARK    9  A    between atoms: C_13  and  C_14 
REMARK   10  A    between atoms: C_15  and  C_16 
REMARK   11  A    between atoms: C_16  and  C_17 
REMARK   12  A    between atoms: C_16  and  O_23 
REMARK   13  A    between atoms: C_17  and  C_18 
REMARK   14  A    between atoms: C_18  and  C_19 
REMARK   15  A    between atoms: C_19  and  C_20 
REMARK   16  A    between atoms: C_20  and  O_22 
REMARK   17  A    between atoms: O_23  and  O_24 
ROOT
HETATM    1  C   UNL     1     -21.551  -6.144  -3.216  1.00  0.00    -0.023 C 
HETATM    2  C   UNL     1     -22.138  -6.529  -4.360  1.00  0.00    -0.004 C 
ENDROOT
BRANCH   2   3
HETATM    3  C   UNL     1     -21.497  -6.382  -5.644  1.00  0.00    -0.002 C 
HETATM    4  C   UNL     1     -21.921  -5.522  -6.582  1.00  0.00     0.008 C 
BRANCH   4   5
HETATM    5  C   UNL     1     -21.258  -5.374  -7.927  1.00  0.00     0.183 C 
BRANCH   5   6
HETATM    6  C   UNL     1     -21.441  -3.941  -8.447  1.00  0.00     0.040 C 
BRANCH   6   7
HETATM    7  C   UNL     1     -22.110  -3.840  -9.823  1.00  0.00     0.013 C 
BRANCH   7   8
HETATM    8  C   UNL     1     -23.498  -4.472  -9.893  1.00  0.00     0.110 C 
BRANCH   8   9
HETATM    9  C   UNL     1     -24.551  -3.448 -10.256  1.00  0.00     0.139 C 
HETATM   10  O   UNL     1     -24.936  -3.198 -11.386  1.00  0.00    -0.650 OA
BRANCH   9  11
HETATM   11  O   UNL     1     -25.046  -2.810  -9.168  1.00  0.00    -0.776 OA
HETATM   12  H   UNL     1     -24.816  -3.231  -8.322  1.00  0.00     0.167 HD
ENDBRANCH   9  11
ENDBRANCH   8   9
ENDBRANCH   7   8
ENDBRANCH   6   7
ENDBRANCH   5   6
BRANCH   5  13
HETATM   13  O   UNL     1     -19.855  -5.633  -7.795  1.00  0.00    -0.234 OA
BRANCH  13  14
HETATM   14  O   UNL     1     -19.226  -4.362  -7.451  1.00  0.00    -0.250 OA
HETATM   15  H   UNL     1     -18.316  -4.637  -7.666  1.00  0.00     0.253 HD
ENDBRANCH  13  14
ENDBRANCH   5  13
ENDBRANCH   4   5
ENDBRANCH   2   3
BRANCH   1  16
HETATM   16  C   UNL     1     -22.190  -6.275  -1.865  1.00  0.00     0.054 C 
BRANCH  16  17
HETATM   17  C   UNL     1     -21.636  -7.451  -1.114  1.00  0.00    -0.027 C 
HETATM   18  C   UNL     1     -22.249  -8.029  -0.067  1.00  0.00    -0.027 C 
BRANCH  18  19
HETATM   19  C   UNL     1     -21.717  -9.225   0.664  1.00  0.00     0.053 C 
BRANCH  19  20
HETATM   20  C   UNL     1     -22.334 -10.493   0.149  1.00  0.00    -0.027 C 
HETATM   21  C   UNL     1     -23.579 -10.577  -0.337  1.00  0.00    -0.030 C 
BRANCH  21  22
HETATM   22  C   UNL     1     -24.185 -11.848  -0.863  1.00  0.00     0.027 C 
BRANCH  22  23
HETATM   23  C   UNL     1     -23.127 -12.719  -1.542  1.00  0.00     0.004 C 
BRANCH  23  24
HETATM   24  C   UNL     1     -23.221 -14.167  -1.064  1.00  0.00    -0.000 C 
BRANCH  24  25
HETATM   25  C   UNL     1     -24.369 -14.907  -1.748  1.00  0.00    -0.005 C 
HETATM   26  C   UNL     1     -25.287 -15.563  -0.729  1.00  0.00     0.005 C 
ENDBRANCH  24  25
ENDBRANCH  23  24
ENDBRANCH  22  23
ENDBRANCH  21  22
ENDBRANCH  19  20
ENDBRANCH  18  19
ENDBRANCH  16  17
ENDBRANCH   1  16
TORSDOF 17
ENDMDL
MODEL 3
REMARK VINA RESULT:      -7.1      2.948      5.118
REMARK  17 active torsions:
REMARK  status: ('A' for Active; 'I' for Inactive)
REMARK    1  A    between atoms: C_2  and  C_3 
REMARK    2  A    between atoms: C_3  and  C_4 
REMARK    3  A    between atoms: C_4  and  C_5 
REMARK    4  A    between atoms: C_5  and  C_6 
REMARK    5  A    between atoms: C_7  and  C_8 
REMARK    6  A    between atoms: C_8  and  C_9 
REMARK    7  A    between atoms: C_10  and  C_11 
REMARK    8  A    between atoms: C_11  and  C_12 
REMARK    9  A    between atoms: C_13  and  C_14 
REMARK   10  A    between atoms: C_15  and  C_16 
REMARK   11  A    between atoms: C_16  and  C_17 
REMARK   12  A    between atoms: C_16  and  O_23 
REMARK   13  A    between atoms: C_17  and  C_18 
REMARK   14  A    between atoms: C_18  and  C_19 
REMARK   15  A    between atoms: C_19  and  C_20 
REMARK   16  A    between atoms: C_20  and  O_22 
REMARK   17  A    between atoms: O_23  and  O_24 
ROOT
HETATM    1  C   UNL     1     -22.252  -7.030  -0.811  1.00  0.00    -0.023 C 
HETATM    2  C   UNL     1     -21.448  -7.272  -1.858  1.00  0.00    -0.004 C 
ENDROOT
BRANCH   2   3
HETATM    3  C   UNL     1     -21.456  -6.451  -3.043  1.00  0.00    -0.002 C 
HETATM    4  C   UNL     1     -22.150  -6.764  -4.148  1.00  0.00     0.008 C 
BRANCH   4   5
HETATM    5  C   UNL     1     -22.151  -5.912  -5.392  1.00  0.00     0.183 C 
BRANCH   5   6
HETATM    6  C   UNL     1     -21.324  -6.592  -6.492  1.00  0.00     0.040 C 
BRANCH   6   7
HETATM    7  C   UNL     1     -19.937  -5.978  -6.720  1.00  0.00     0.013 C 
BRANCH   7   8
HETATM    8  C   UNL     1     -19.962  -4.509  -7.136  1.00  0.00     0.110 C 
BRANCH   8   9
HETATM    9  C   UNL     1     -20.629  -4.330  -8.483  1.00  0.00     0.139 C 
HETATM   10  O   UNL     1     -21.711  -3.802  -8.673  1.00  0.00    -0.650 OA
BRANCH   9  11
HETATM   11  O   UNL     1     -19.881  -4.830  -9.498  1.00  0.00    -0.776 OA
HETATM   12  H   UNL     1     -19.060  -5.262  -9.209  1.00  0.00     0.167 HD
ENDBRANCH   9  11
ENDBRANCH   8   9
ENDBRANCH   7   8
ENDBRANCH   6   7
ENDBRANCH   5   6
BRANCH   5  13
HETATM   13  O   UNL     1     -23.497  -5.763  -5.862  1.00  0.00    -0.234 OA
BRANCH  13  14
HETATM   14  O   UNL     1     -23.534  -4.527  -6.637  1.00  0.00    -0.250 OA
HETATM   15  H   UNL     1     -22.598  -4.292  -6.499  1.00  0.00     0.253 HD
ENDBRANCH  13  14
ENDBRANCH   5  13
ENDBRANCH   4   5
ENDBRANCH   2   3
BRANCH   1  16
HETATM   16  C   UNL     1     -22.277  -7.865   0.434  1.00  0.00     0.054 C 
BRANCH  16  17
HETATM   17  C   UNL     1     -22.369  -9.327   0.106  1.00  0.00    -0.027 C 
HETATM   18  C   UNL     1     -23.522  -9.966  -0.156  1.00  0.00    -0.027 C 
BRANCH  18  19
HETATM   19  C   UNL     1     -23.616 -11.418  -0.517  1.00  0.00     0.053 C 
BRANCH  19  20
HETATM   20  C   UNL     1     -22.892 -11.705  -1.801  1.00  0.00    -0.027 C 
HETATM   21  C   UNL     1     -22.942 -10.915  -2.882  1.00  0.00    -0.030 C 
BRANCH  21  22
HETATM   22  C   UNL     1     -22.204 -11.202  -4.160  1.00  0.00     0.027 C 
BRANCH  22  23
HETATM   23  C   UNL     1     -20.721 -10.856  -4.025  1.00  0.00     0.004 C 
BRANCH  23  24
HETATM   24  C   UNL     1     -20.308  -9.808  -5.059  1.00  0.00    -0.000 C 
BRANCH  24  25
HETATM   25  C   UNL     1     -19.114  -8.988  -4.575  1.00  0.00    -0.005 C 
HETATM   26  C   UNL     1     -18.689  -9.406  -3.177  1.00  0.00     0.005 C 
ENDBRANCH  24  25
ENDBRANCH  23  24
ENDBRANCH  22  23
ENDBRANCH  21  22
ENDBRANCH  19  20
ENDBRANCH  18  19
ENDBRANCH  16  17
ENDBRANCH   1  16
TORSDOF 17
ENDMDL
MODEL 4
REMARK VINA RESULT:      -7.0      3.046      5.179
REMARK  17 active torsions:
REMARK  status: ('A' for Active; 'I' for Inactive)
REMARK    1  A    between atoms: C_2  and  C_3 
REMARK    2  A    between atoms: C_3  and  C_4 
REMARK    3  A    between atoms: C_4  and  C_5 
REMARK    4  A    between atoms: C_5  and  C_6 
REMARK    5  A    between atoms: C_7  and  C_8 
REMARK    6  A    between atoms: C_8  and  C_9 
REMARK    7  A    between atoms: C_10  and  C_11 
REMARK    8  A    between atoms: C_11  and  C_12 
REMARK    9  A    between atoms: C_13  and  C_14 
REMARK   10  A    between atoms: C_15  and  C_16 
REMARK   11  A    between atoms: C_16  and  C_17 
REMARK   12  A    between atoms: C_16  and  O_23 
REMARK   13  A    between atoms: C_17  and  C_18 
REMARK   14  A    between atoms: C_18  and  C_19 
REMARK   15  A    between atoms: C_19  and  C_20 
REMARK   16  A    between atoms: C_20  and  O_22 
REMARK   17  A    between atoms: O_23  and  O_24 
ROOT
HETATM    1  C   UNL     1     -21.658  -7.274  -1.468  1.00  0.00    -0.023 C 
HETATM    2  C   UNL     1     -22.075  -6.324  -2.319  1.00  0.00    -0.004 C 
ENDROOT
BRANCH   2   3
HETATM    3  C   UNL     1     -21.432  -6.088  -3.589  1.00  0.00    -0.002 C 
HETATM    4  C   UNL     1     -22.000  -6.391  -4.766  1.00  0.00     0.008 C 
BRANCH   4   5
HETATM    5  C   UNL     1     -21.325  -6.155  -6.093  1.00  0.00     0.183 C 
BRANCH   5   6
HETATM    6  C   UNL     1     -20.574  -4.816  -6.068  1.00  0.00     0.040 C 
BRANCH   6   7
HETATM    7  C   UNL     1     -21.012  -3.818  -7.145  1.00  0.00     0.013 C 
BRANCH   7   8
HETATM    8  C   UNL     1     -21.592  -4.465  -8.401  1.00  0.00     0.110 C 
BRANCH   8   9
HETATM    9  C   UNL     1     -22.996  -3.970  -8.677  1.00  0.00     0.139 C 
HETATM   10  O   UNL     1     -23.368  -3.431  -9.705  1.00  0.00    -0.650 OA
BRANCH   9  11
HETATM   11  O   UNL     1     -23.834  -4.192  -7.634  1.00  0.00    -0.776 OA
HETATM   12  H   UNL     1     -23.733  -3.558  -6.903  1.00  0.00     0.167 HD
ENDBRANCH   9  11
ENDBRANCH   8   9
ENDBRANCH   7   8
ENDBRANCH   6   7
ENDBRANCH   5   6
BRANCH   5  13
HETATM   13  O   UNL     1     -20.378  -7.203  -6.334  1.00  0.00    -0.234 OA
BRANCH  13  14
HETATM   14  O   UNL     1     -21.059  -8.459  -6.040  1.00  0.00    -0.250 OA
HETATM   15  H   UNL     1     -21.962  -8.091  -6.052  1.00  0.00     0.253 HD
ENDBRANCH  13  14
ENDBRANCH   5  13
ENDBRANCH   4   5
ENDBRANCH   2   3
BRANCH   1  16
HETATM   16  C   UNL     1     -22.296  -7.543  -0.138  1.00  0.00     0.054 C 
BRANCH  16  17
HETATM   17  C   UNL     1     -21.610  -8.672   0.576  1.00  0.00    -0.027 C 
HETATM   18  C   UNL     1     -21.619  -9.946   0.150  1.00  0.00    -0.027 C 
BRANCH  18  19
HETATM   19  C   UNL     1     -20.907 -11.070   0.841  1.00  0.00     0.053 C 
BRANCH  19  20
HETATM   20  C   UNL     1     -19.677 -11.478   0.083  1.00  0.00    -0.027 C 
HETATM   21  C   UNL     1     -19.536 -11.349  -1.242  1.00  0.00    -0.030 C 
BRANCH  21  22
HETATM   22  C   UNL     1     -18.296 -11.749  -1.992  1.00  0.00     0.027 C 
BRANCH  22  23
HETATM   23  C   UNL     1     -17.045 -11.516  -1.143  1.00  0.00     0.004 C 
BRANCH  23  24
HETATM   24  C   UNL     1     -15.868 -11.076  -2.014  1.00  0.00    -0.000 C 
BRANCH  24  25
HETATM   25  C   UNL     1     -16.140  -9.729  -2.680  1.00  0.00    -0.005 C 
HETATM   26  C   UNL     1     -15.982  -9.819  -4.189  1.00  0.00     0.005 C 
ENDBRANCH  24  25
ENDBRANCH  23  24
ENDBRANCH  22  23
ENDBRANCH  21  22
ENDBRANCH  19  20
ENDBRANCH  18  19
ENDBRANCH  16  17
ENDBRANCH   1  16
TORSDOF 17
ENDMDL
MODEL 5
REMARK VINA RESULT:      -7.0      3.214      4.382
REMARK  17 active torsions:
REMARK  status: ('A' for Active; 'I' for Inactive)
REMARK    1  A    between atoms: C_2  and  C_3 
REMARK    2  A    between atoms: C_3  and  C_4 
REMARK    3  A    between atoms: C_4  and  C_5 
REMARK    4  A    between atoms: C_5  and  C_6 
REMARK    5  A    between atoms: C_7  and  C_8 
REMARK    6  A    between atoms: C_8  and  C_9 
REMARK    7  A    between atoms: C_10  and  C_11 
REMARK    8  A    between atoms: C_11  and  C_12 
REMARK    9  A    between atoms: C_13  and  C_14 
REMARK   10  A    between atoms: C_15  and  C_16 
REMARK   11  A    between atoms: C_16  and  C_17 
REMARK   12  A    between atoms: C_16  and  O_23 
REMARK   13  A    between atoms: C_17  and  C_18 
REMARK   14  A    between atoms: C_18  and  C_19 
REMARK   15  A    between atoms: C_19  and  C_20 
REMARK   16  A    between atoms: C_20  and  O_22 
REMARK   17  A    between atoms: O_23  and  O_24 
ROOT
HETATM    1  C   UNL     1     -21.922  -6.295  -1.913  1.00  0.00    -0.023 C 
HETATM    2  C   UNL     1     -22.074  -6.798  -3.148  1.00  0.00    -0.004 C 
ENDROOT
BRANCH   2   3
HETATM    3  C   UNL     1     -21.527  -6.152  -4.316  1.00  0.00    -0.002 C 
HETATM    4  C   UNL     1     -21.256  -6.805  -5.456  1.00  0.00     0.008 C 
BRANCH   4   5
HETATM    5  C   UNL     1     -20.675  -6.134  -6.674  1.00  0.00     0.183 C 
BRANCH   5   6
HETATM    6  C   UNL     1     -20.520  -4.628  -6.418  1.00  0.00     0.040 C 
BRANCH   6   7
HETATM    7  C   UNL     1     -21.418  -3.737  -7.284  1.00  0.00     0.013 C 
BRANCH   7   8
HETATM    8  C   UNL     1     -22.816  -4.302  -7.525  1.00  0.00     0.110 C 
BRANCH   8   9
HETATM    9  C   UNL     1     -23.310  -3.973  -8.917  1.00  0.00     0.139 C 
HETATM   10  O   UNL     1     -22.727  -4.233  -9.955  1.00  0.00    -0.650 OA
BRANCH   9  11
HETATM   11  O   UNL     1     -24.508  -3.338  -8.902  1.00  0.00    -0.776 OA
HETATM   12  H   UNL     1     -24.978  -3.359  -9.753  1.00  0.00     0.167 HD
ENDBRANCH   9  11
ENDBRANCH   8   9
ENDBRANCH   7   8
ENDBRANCH   6   7
ENDBRANCH   5   6
BRANCH   5  13
HETATM   13  O   UNL     1     -19.379  -6.684  -6.945  1.00  0.00    -0.234 OA
BRANCH  13  14
HETATM   14  O   UNL     1     -19.293  -7.936  -6.201  1.00  0.00    -0.250 OA
HETATM   15  H   UNL     1     -19.646  -7.583  -5.364  1.00  0.00     0.253 HD
ENDBRANCH  13  14
ENDBRANCH   5  13
ENDBRANCH   4   5
ENDBRANCH   2   3
BRANCH   1  16
HETATM   16  C   UNL     1     -22.481  -6.935  -0.676  1.00  0.00     0.054 C 
BRANCH  16  17
HETATM   17  C   UNL     1     -21.559  -7.996  -0.149  1.00  0.00    -0.027 C 
HETATM   18  C   UNL     1     -21.460  -8.325   1.150  1.00  0.00    -0.027 C 
BRANCH  18  19
HETATM   19  C   UNL     1     -20.566  -9.407   1.678  1.00  0.00     0.053 C 
BRANCH  19  20
HETATM   20  C   UNL     1     -20.799 -10.703   0.956  1.00  0.00    -0.027 C 
HETATM   21  C   UNL     1     -20.035 -11.149  -0.049  1.00  0.00    -0.030 C 
BRANCH  21  22
HETATM   22  C   UNL     1     -20.268 -12.453  -0.759  1.00  0.00     0.027 C 
BRANCH  22  23
HETATM   23  C   UNL     1     -20.413 -12.239  -2.266  1.00  0.00     0.004 C 
BRANCH  23  24
HETATM   24  C   UNL     1     -20.949 -10.840  -2.570  1.00  0.00    -0.000 C 
BRANCH  24  25
HETATM   25  C   UNL     1     -20.053 -10.104  -3.564  1.00  0.00    -0.005 C 
HETATM   26  C   UNL     1     -19.153  -9.103  -2.857  1.00  0.00     0.005 C 
ENDBRANCH  24  25
ENDBRANCH  23  24
ENDBRANCH  22  23
ENDBRANCH  21  22
ENDBRANCH  19  20
ENDBRANCH  18  19
ENDBRANCH  16  17
ENDBRANCH   1  16
TORSDOF 17
ENDMDL
MODEL 6
REMARK VINA RESULT:      -6.9      3.126      4.831
REMARK  17 active torsions:
REMARK  status: ('A' for Active; 'I' for Inactive)
REMARK    1  A    between atoms: C_2  and  C_3 
REMARK    2  A    between atoms: C_3  and  C_4 
REMARK    3  A    between atoms: C_4  and  C_5 
REMARK    4  A    between atoms: C_5  and  C_6 
REMARK    5  A    between atoms: C_7  and  C_8 
REMARK    6  A    between atoms: C_8  and  C_9 
REMARK    7  A    between atoms: C_10  and  C_11 
REMARK    8  A    between atoms: C_11  and  C_12 
REMARK    9  A    between atoms: C_13  and  C_14 
REMARK   10  A    between atoms: C_15  and  C_16 
REMARK   11  A    between atoms: C_16  and  C_17 
REMARK   12  A    between atoms: C_16  and  O_23 
REMARK   13  A    between atoms: C_17  and  C_18 
REMARK   14  A    between atoms: C_18  and  C_19 
REMARK   15  A    between atoms: C_19  and  C_20 
REMARK   16  A    between atoms: C_20  and  O_22 
REMARK   17  A    between atoms: O_23  and  O_24 
ROOT
HETATM    1  C   UNL     1     -21.670  -6.229  -3.239  1.00  0.00    -0.023 C 
HETATM    2  C   UNL     1     -22.203  -6.886  -4.281  1.00  0.00    -0.004 C 
ENDROOT
BRANCH   2   3
HETATM    3  C   UNL     1     -21.669  -6.776  -5.617  1.00  0.00    -0.002 C 
HETATM    4  C   UNL     1     -21.645  -5.625  -6.305  1.00  0.00     0.008 C 
BRANCH   4   5
HETATM    5  C   UNL     1     -21.098  -5.510  -7.705  1.00  0.00     0.183 C 
BRANCH   5   6
HETATM    6  C   UNL     1     -21.636  -4.238  -8.375  1.00  0.00     0.040 C 
BRANCH   6   7
HETATM    7  C   UNL     1     -22.147  -4.437  -9.807  1.00  0.00     0.013 C 
BRANCH   7   8
HETATM    8  C   UNL     1     -22.891  -3.233 -10.379  1.00  0.00     0.110 C 
BRANCH   8   9
HETATM    9  C   UNL     1     -24.347  -3.557 -10.635  1.00  0.00     0.139 C 
HETATM   10  O   UNL     1     -25.093  -4.128  -9.857  1.00  0.00    -0.650 OA
BRANCH   9  11
HETATM   11  O   UNL     1     -24.762  -3.137 -11.855  1.00  0.00    -0.776 OA
HETATM   12  H   UNL     1     -24.572  -2.201 -12.037  1.00  0.00     0.167 HD
ENDBRANCH   9  11
ENDBRANCH   8   9
ENDBRANCH   7   8
ENDBRANCH   6   7
ENDBRANCH   5   6
BRANCH   5  13
HETATM   13  O   UNL     1     -19.668  -5.424  -7.648  1.00  0.00    -0.234 OA
BRANCH  13  14
HETATM   14  O   UNL     1     -19.348  -4.518  -6.550  1.00  0.00    -0.250 OA
HETATM   15  H   UNL     1     -19.522  -5.158  -5.836  1.00  0.00     0.253 HD
ENDBRANCH  13  14
ENDBRANCH   5  13
ENDBRANCH   4   5
ENDBRANCH   2   3
BRANCH   1  16
HETATM   16  C   UNL     1     -22.201  -6.313  -1.839  1.00  0.00     0.054 C 
BRANCH  16  17
HETATM   17  C   UNL     1     -21.552  -7.432  -1.078  1.00  0.00    -0.027 C 
HETATM   18  C   UNL     1     -21.939  -7.831   0.145  1.00  0.00    -0.027 C 
BRANCH  18  19
HETATM   19  C   UNL     1     -21.315  -8.970   0.896  1.00  0.00     0.053 C 
BRANCH  19  20
HETATM   20  C   UNL     1     -21.730 -10.291   0.317  1.00  0.00    -0.027 C 
HETATM   21  C   UNL     1     -22.750 -10.449  -0.537  1.00  0.00    -0.030 C 
BRANCH  21  22
HETATM   22  C   UNL     1     -23.150 -11.774  -1.122  1.00  0.00     0.027 C 
BRANCH  22  23
HETATM   23  C   UNL     1     -22.886 -11.810  -2.628  1.00  0.00     0.004 C 
BRANCH  23  24
HETATM   24  C   UNL     1     -22.486 -10.428  -3.146  1.00  0.00    -0.000 C 
BRANCH  24  25
HETATM   25  C   UNL     1     -21.067 -10.434  -3.712  1.00  0.00    -0.005 C 
HETATM   26  C   UNL     1     -21.080 -10.412  -5.232  1.00  0.00     0.005 C 
ENDBRANCH  24  25
ENDBRANCH  23  24
ENDBRANCH  22  23
ENDBRANCH  21  22
ENDBRANCH  19  20
ENDBRANCH  18  19
ENDBRANCH  16  17
ENDBRANCH   1  16
TORSDOF 17
ENDMDL
MODEL 7
REMARK VINA RESULT:      -6.7      1.983      3.833
REMARK  17 active torsions:
REMARK  status: ('A' for Active; 'I' for Inactive)
REMARK    1  A    between atoms: C_2  and  C_3 
REMARK    2  A    between atoms: C_3  and  C_4 
REMARK    3  A    between atoms: C_4  and  C_5 
REMARK    4  A    between atoms: C_5  and  C_6 
REMARK    5  A    between atoms: C_7  and  C_8 
REMARK    6  A    between atoms: C_8  and  C_9 
REMARK    7  A    between atoms: C_10  and  C_11 
REMARK    8  A    between atoms: C_11  and  C_12 
REMARK    9  A    between atoms: C_13  and  C_14 
REMARK   10  A    between atoms: C_15  and  C_16 
REMARK   11  A    between atoms: C_16  and  C_17 
REMARK   12  A    between atoms: C_16  and  O_23 
REMARK   13  A    between atoms: C_17  and  C_18 
REMARK   14  A    between atoms: C_18  and  C_19 
REMARK   15  A    between atoms: C_19  and  C_20 
REMARK   16  A    between atoms: C_20  and  O_22 
REMARK   17  A    between atoms: O_23  and  O_24 
ROOT
HETATM    1  C   UNL     1     -20.567  -8.415  -5.155  1.00  0.00    -0.023 C 
HETATM    2  C   UNL     1     -20.227  -7.125  -5.308  1.00  0.00    -0.004 C 
ENDROOT
BRANCH   2   3
HETATM    3  C   UNL     1     -20.761  -6.307  -6.369  1.00  0.00    -0.002 C 
HETATM    4  C   UNL     1     -21.497  -5.207  -6.148  1.00  0.00     0.008 C 
BRANCH   4   5
HETATM    5  C   UNL     1     -22.064  -4.357  -7.256  1.00  0.00     0.183 C 
BRANCH   5   6
HETATM    6  C   UNL     1     -21.610  -4.901  -8.618  1.00  0.00     0.040 C 
BRANCH   6   7
HETATM    7  C   UNL     1     -22.223  -4.186  -9.828  1.00  0.00     0.013 C 
BRANCH   7   8
HETATM    8  C   UNL     1     -23.601  -4.706 -10.230  1.00  0.00     0.110 C 
BRANCH   8   9
HETATM    9  C   UNL     1     -24.525  -3.571 -10.616  1.00  0.00     0.139 C 
HETATM   10  O   UNL     1     -25.371  -3.069  -9.895  1.00  0.00    -0.650 OA
BRANCH   9  11
HETATM   11  O   UNL     1     -24.317  -3.147 -11.887  1.00  0.00    -0.776 OA
HETATM   12  H   UNL     1     -23.855  -2.294 -11.949  1.00  0.00     0.167 HD
ENDBRANCH   9  11
ENDBRANCH   8   9
ENDBRANCH   7   8
ENDBRANCH   6   7
ENDBRANCH   5   6
BRANCH   5  13
HETATM   13  O   UNL     1     -23.496  -4.405  -7.203  1.00  0.00    -0.234 OA
BRANCH  13  14
HETATM   14  O   UNL     1     -23.844  -5.179  -6.016  1.00  0.00    -0.250 OA
HETATM   15  H   UNL     1     -23.798  -6.052  -6.445  1.00  0.00     0.253 HD
ENDBRANCH  13  14
ENDBRANCH   5  13
ENDBRANCH   4   5
ENDBRANCH   2   3
BRANCH   1  16
HETATM   16  C   UNL     1     -20.028  -9.298  -4.069  1.00  0.00     0.054 C 
BRANCH  16  17
HETATM   17  C   UNL     1     -20.363  -8.754  -2.710  1.00  0.00    -0.027 C 
HETATM   18  C   UNL     1     -21.601  -8.398  -2.329  1.00  0.00    -0.027 C 
BRANCH  18  19
HETATM   19  C   UNL     1     -21.947  -7.887  -0.963  1.00  0.00     0.053 C 
BRANCH  19  20
HETATM   20  C   UNL     1     -22.739  -8.901  -0.189  1.00  0.00    -0.027 C 
HETATM   21  C   UNL     1     -23.122 -10.087  -0.682  1.00  0.00    -0.030 C 
BRANCH  21  22
HETATM   22  C   UNL     1     -23.904 -11.103   0.103  1.00  0.00     0.027 C 
BRANCH  22  23
HETATM   23  C   UNL     1     -23.358 -12.512  -0.129  1.00  0.00     0.004 C 
BRANCH  23  24
HETATM   24  C   UNL     1     -22.553 -12.993   1.078  1.00  0.00    -0.000 C 
BRANCH  24  25
HETATM   25  C   UNL     1     -23.423 -13.791   2.046  1.00  0.00    -0.005 C 
HETATM   26  C   UNL     1     -23.784 -15.151   1.470  1.00  0.00     0.005 C 
ENDBRANCH  24  25
ENDBRANCH  23  24
ENDBRANCH  22  23
ENDBRANCH  21  22
ENDBRANCH  19  20
ENDBRANCH  18  19
ENDBRANCH  16  17
ENDBRANCH   1  16
TORSDOF 17
ENDMDL
MODEL 8
REMARK VINA RESULT:      -6.6      2.429      4.050
REMARK  17 active torsions:
REMARK  status: ('A' for Active; 'I' for Inactive)
REMARK    1  A    between atoms: C_2  and  C_3 
REMARK    2  A    between atoms: C_3  and  C_4 
REMARK    3  A    between atoms: C_4  and  C_5 
REMARK    4  A    between atoms: C_5  and  C_6 
REMARK    5  A    between atoms: C_7  and  C_8 
REMARK    6  A    between atoms: C_8  and  C_9 
REMARK    7  A    between atoms: C_10  and  C_11 
REMARK    8  A    between atoms: C_11  and  C_12 
REMARK    9  A    between atoms: C_13  and  C_14 
REMARK   10  A    between atoms: C_15  and  C_16 
REMARK   11  A    between atoms: C_16  and  C_17 
REMARK   12  A    between atoms: C_16  and  O_23 
REMARK   13  A    between atoms: C_17  and  C_18 
REMARK   14  A    between atoms: C_18  and  C_19 
REMARK   15  A    between atoms: C_19  and  C_20 
REMARK   16  A    between atoms: C_20  and  O_22 
REMARK   17  A    between atoms: O_23  and  O_24 
ROOT
HETATM    1  C   UNL     1     -20.913  -7.487  -3.166  1.00  0.00    -0.023 C 
HETATM    2  C   UNL     1     -21.931  -6.773  -3.671  1.00  0.00    -0.004 C 
ENDROOT
BRANCH   2   3
HETATM    3  C   UNL     1     -22.066  -6.515  -5.084  1.00  0.00    -0.002 C 
HETATM    4  C   UNL     1     -21.120  -5.904  -5.812  1.00  0.00     0.008 C 
BRANCH   4   5
HETATM    5  C   UNL     1     -21.263  -5.625  -7.286  1.00  0.00     0.183 C 
BRANCH   5   6
HETATM    6  C   UNL     1     -21.613  -4.146  -7.507  1.00  0.00     0.040 C 
BRANCH   6   7
HETATM    7  C   UNL     1     -22.981  -3.903  -8.156  1.00  0.00     0.013 C 
BRANCH   7   8
HETATM    8  C   UNL     1     -23.018  -4.174  -9.659  1.00  0.00     0.110 C 
BRANCH   8   9
HETATM    9  C   UNL     1     -24.337  -3.743 -10.262  1.00  0.00     0.139 C 
HETATM   10  O   UNL     1     -24.469  -3.019 -11.235  1.00  0.00    -0.650 OA
BRANCH   9  11
HETATM   11  O   UNL     1     -25.401  -4.257  -9.597  1.00  0.00    -0.776 OA
HETATM   12  H   UNL     1     -25.161  -4.850  -8.865  1.00  0.00     0.167 HD
ENDBRANCH   9  11
ENDBRANCH   8   9
ENDBRANCH   7   8
ENDBRANCH   6   7
ENDBRANCH   5   6
BRANCH   5  13
HETATM   13  O   UNL     1     -20.020  -5.900  -7.943  1.00  0.00    -0.234 OA
BRANCH  13  14
HETATM   14  O   UNL     1     -19.694  -4.717  -8.733  1.00  0.00    -0.250 OA
HETATM   15  H   UNL     1     -19.652  -5.175  -9.592  1.00  0.00     0.253 HD
ENDBRANCH  13  14
ENDBRANCH   5  13
ENDBRANCH   4   5
ENDBRANCH   2   3
BRANCH   1  16
HETATM   16  C   UNL     1     -20.736  -7.769  -1.703  1.00  0.00     0.054 C 
BRANCH  16  17
HETATM   17  C   UNL     1     -21.787  -8.716  -1.201  1.00  0.00    -0.027 C 
HETATM   18  C   UNL     1     -22.586  -8.462  -0.151  1.00  0.00    -0.027 C 
BRANCH  18  19
HETATM   19  C   UNL     1     -23.660  -9.390   0.333  1.00  0.00     0.053 C 
BRANCH  19  20
HETATM   20  C   UNL     1     -23.513 -10.754  -0.278  1.00  0.00    -0.027 C 
HETATM   21  C   UNL     1     -23.632 -11.899   0.407  1.00  0.00    -0.030 C 
BRANCH  21  22
HETATM   22  C   UNL     1     -23.497 -13.261  -0.214  1.00  0.00     0.027 C 
BRANCH  22  23
HETATM   23  C   UNL     1     -23.758 -13.204  -1.719  1.00  0.00     0.004 C 
BRANCH  23  24
HETATM   24  C   UNL     1     -22.448 -13.258  -2.504  1.00  0.00    -0.000 C 
BRANCH  24  25
HETATM   25  C   UNL     1     -22.573 -12.544  -3.849  1.00  0.00    -0.005 C 
HETATM   26  C   UNL     1     -21.725 -11.282  -3.883  1.00  0.00     0.005 C 
ENDBRANCH  24  25
ENDBRANCH  23  24
ENDBRANCH  22  23
ENDBRANCH  21  22
ENDBRANCH  19  20
ENDBRANCH  18  19
ENDBRANCH  16  17
ENDBRANCH   1  16
TORSDOF 17
ENDMDL
MODEL 9
REMARK VINA RESULT:      -6.5      3.171      4.970
REMARK  17 active torsions:
REMARK  status: ('A' for Active; 'I' for Inactive)
REMARK    1  A    between atoms: C_2  and  C_3 
REMARK    2  A    between atoms: C_3  and  C_4 
REMARK    3  A    between atoms: C_4  and  C_5 
REMARK    4  A    between atoms: C_5  and  C_6 
REMARK    5  A    between atoms: C_7  and  C_8 
REMARK    6  A    between atoms: C_8  and  C_9 
REMARK    7  A    between atoms: C_10  and  C_11 
REMARK    8  A    between atoms: C_11  and  C_12 
REMARK    9  A    between atoms: C_13  and  C_14 
REMARK   10  A    between atoms: C_15  and  C_16 
REMARK   11  A    between atoms: C_16  and  C_17 
REMARK   12  A    between atoms: C_16  and  O_23 
REMARK   13  A    between atoms: C_17  and  C_18 
REMARK   14  A    between atoms: C_18  and  C_19 
REMARK   15  A    between atoms: C_19  and  C_20 
REMARK   16  A    between atoms: C_20  and  O_22 
REMARK   17  A    between atoms: O_23  and  O_24 
ROOT
HETATM    1  C   UNL     1     -20.041  -7.594  -5.334  1.00  0.00    -0.023 C 
HETATM    2  C   UNL     1     -21.061  -6.723  -5.284  1.00  0.00    -0.004 C 
ENDROOT
BRANCH   2   3
HETATM    3  C   UNL     1     -21.169  -5.609  -6.194  1.00  0.00    -0.002 C 
HETATM    4  C   UNL     1     -20.675  -5.630  -7.441  1.00  0.00     0.008 C 
BRANCH   4   5
HETATM    5  C   UNL     1     -20.778  -4.463  -8.390  1.00  0.00     0.183 C 
BRANCH   5   6
HETATM    6  C   UNL     1     -22.046  -3.652  -8.087  1.00  0.00     0.040 C 
BRANCH   6   7
HETATM    7  C   UNL     1     -23.357  -4.356  -8.454  1.00  0.00     0.013 C 
BRANCH   7   8
HETATM    8  C   UNL     1     -23.542  -4.597  -9.950  1.00  0.00     0.110 C 
BRANCH   8   9
HETATM    9  C   UNL     1     -24.367  -3.499 -10.585  1.00  0.00     0.139 C 
HETATM   10  O   UNL     1     -25.506  -3.197 -10.271  1.00  0.00    -0.650 OA
BRANCH   9  11
HETATM   11  O   UNL     1     -23.697  -2.857 -11.574  1.00  0.00    -0.776 OA
HETATM   12  H   UNL     1     -23.440  -3.431 -12.315  1.00  0.00     0.167 HD
ENDBRANCH   9  11
ENDBRANCH   8   9
ENDBRANCH   7   8
ENDBRANCH   6   7
ENDBRANCH   5   6
BRANCH   5  13
HETATM   13  O   UNL     1     -19.640  -3.609  -8.214  1.00  0.00    -0.234 OA
BRANCH  13  14
HETATM   14  O   UNL     1     -18.590  -4.428  -7.618  1.00  0.00    -0.250 OA
HETATM   15  H   UNL     1     -17.852  -4.021  -8.108  1.00  0.00     0.253 HD
ENDBRANCH  13  14
ENDBRANCH   5  13
ENDBRANCH   4   5
ENDBRANCH   2   3
BRANCH   1  16
HETATM   16  C   UNL     1     -19.892  -8.759  -4.401  1.00  0.00     0.054 C 
BRANCH  16  17
HETATM   17  C   UNL     1     -21.162  -9.555  -4.318  1.00  0.00    -0.027 C 
HETATM   18  C   UNL     1     -21.213 -10.896  -4.388  1.00  0.00    -0.027 C 
BRANCH  18  19
HETATM   19  C   UNL     1     -22.474 -11.698  -4.272  1.00  0.00     0.053 C 
BRANCH  19  20
HETATM   20  C   UNL     1     -22.797 -11.994  -2.836  1.00  0.00    -0.027 C 
HETATM   21  C   UNL     1     -23.513 -11.183  -2.046  1.00  0.00    -0.030 C 
BRANCH  21  22
HETATM   22  C   UNL     1     -23.843 -11.492  -0.613  1.00  0.00     0.027 C 
BRANCH  22  23
HETATM   23  C   UNL     1     -23.015 -10.628   0.339  1.00  0.00     0.004 C 
BRANCH  23  24
HETATM   24  C   UNL     1     -23.120  -9.150  -0.035  1.00  0.00    -0.000 C 
BRANCH  24  25
HETATM   25  C   UNL     1     -21.853  -8.387   0.350  1.00  0.00    -0.005 C 
HETATM   26  C   UNL     1     -20.967  -8.145  -0.861  1.00  0.00     0.005 C 
ENDBRANCH  24  25
ENDBRANCH  23  24
ENDBRANCH  22  23
ENDBRANCH  21  22
ENDBRANCH  19  20
ENDBRANCH  18  19
ENDBRANCH  16  17
ENDBRANCH   1  16
TORSDOF 17
ENDMDL
