MODEL 1
REMARK VINA RESULT:      -9.2      0.000      0.000
REMARK  5 active torsions:
REMARK  status: ('A' for Active; 'I' for Inactive)
REMARK       I    between atoms: C_2  and  N_4 
REMARK    1  A    between atoms: N_4  and  C_5 
REMARK    2  A    between atoms: C_9  and  O_10 
REMARK    3  A    between atoms: O_10  and  C_11 
REMARK    4  A    between atoms: C_13  and  C_14 
REMARK    5  A    between atoms: C_17  and  C_18 
ROOT
HETATM    1  C   UNL     1     -21.374  -8.424  -1.706  1.00  0.00     0.151 A 
HETATM    2  C   UNL     1     -21.080  -8.052  -3.002  1.00  0.00     0.086 A 
HETATM    3  C   UNL     1     -21.438  -6.766  -3.361  1.00  0.00     0.047 A 
HETATM    4  N   UNL     1     -22.052  -5.932  -2.491  1.00  0.00    -0.352 N 
ATOM      5  HN  UNL     1     -22.296  -4.976  -2.752  1.00  0.00     0.166 HD
HETATM    6  C   UNL     1     -22.325  -6.417  -1.273  1.00  0.00     0.182 A 
HETATM    7  N   UNL     1     -22.024  -7.640  -0.831  1.00  0.00    -0.333 N 
ATOM      8  HN  UNL     1     -22.271  -7.956   0.106  1.00  0.00     0.168 HD
ENDROOT
BRANCH   1   9
HETATM    9  O   UNL     1     -20.958  -9.694  -1.316  1.00  0.00    -0.291 OA
BRANCH   9  10
HETATM   10  C   UNL     1     -21.907 -10.701  -1.261  1.00  0.00     0.105 A 
HETATM   11  C   UNL     1     -21.919 -11.691  -2.277  1.00  0.00     0.085 A 
HETATM   12  N   UNL     1     -21.080 -11.772  -3.393  1.00  0.00    -0.333 N 
HETATM   13  C   UNL     1     -22.871 -12.711  -2.196  1.00  0.00     0.038 A 
HETATM   14  C   UNL     1     -21.469 -12.758  -4.165  1.00  0.00     0.152 A 
ATOM     15  HN  UNL     1     -20.286 -11.158  -3.578  1.00  0.00     0.168 HD
HETATM   16  S   UNL     1     -22.700 -13.752  -3.548  1.00  0.00    -0.052 SA
HETATM   17  C   UNL     1     -23.799 -12.804  -1.148  1.00  0.00     0.021 A 
HETATM   18  C   UNL     1     -23.760 -11.837  -0.149  1.00  0.00     0.004 A 
HETATM   19  C   UNL     1     -22.817 -10.817  -0.189  1.00  0.00     0.040 A 
BRANCH  14  20
HETATM   20  N   UNL     1     -20.874 -13.016  -5.378  1.00  0.00    -0.307 N 
HETATM   21  C   UNL     1     -20.659 -12.085  -6.372  1.00  0.00     0.219 C 
HETATM   22  C   UNL     1     -20.006 -12.683  -7.590  1.00  0.00     0.117 C 
HETATM   23  O   UNL     1     -20.929 -10.889  -6.346  1.00  0.00    -0.274 OA
HETATM   24  H   UNL     1     -20.404 -13.910  -5.418  1.00  0.00     0.171 HD
ENDBRANCH  14  20
ENDBRANCH   9  10
ENDBRANCH   1   9
BRANCH   3  25
HETATM   25  C   UNL     1     -21.152  -6.194  -4.695  1.00  0.00    -0.009 A 
HETATM   26  C   UNL     1     -21.566  -6.826  -5.883  1.00  0.00     0.014 A 
HETATM   27  C   UNL     1     -21.273  -6.276  -7.139  1.00  0.00     0.017 A 
HETATM   28  C   UNL     1     -20.558  -5.077  -7.249  1.00  0.00     0.048 A 
HETATM   29  C   UNL     1     -20.152  -4.433  -6.076  1.00  0.00     0.017 A 
HETATM   30  C   UNL     1     -20.447  -4.982  -4.824  1.00  0.00     0.014 A 
BRANCH  28  31
HETATM   31  C   UNL     1     -20.232  -4.481  -8.596  1.00  0.00     0.417 C 
HETATM   32  F   UNL     1     -19.701  -5.376  -9.475  1.00  0.00    -0.166 F 
HETATM   33  F   UNL     1     -21.325  -3.955  -9.216  1.00  0.00    -0.166 F 
HETATM   34  F   UNL     1     -19.327  -3.466  -8.509  1.00  0.00    -0.166 F 
ENDBRANCH  28  31
ENDBRANCH   3  25
TORSDOF 5
ENDMDL
MODEL 2
REMARK VINA RESULT:      -8.5      1.847      2.149
REMARK  5 active torsions:
REMARK  status: ('A' for Active; 'I' for Inactive)
REMARK       I    between atoms: C_2  and  N_4 
REMARK    1  A    between atoms: N_4  and  C_5 
REMARK    2  A    between atoms: C_9  and  O_10 
REMARK    3  A    between atoms: O_10  and  C_11 
REMARK    4  A    between atoms: C_13  and  C_14 
REMARK    5  A    between atoms: C_17  and  C_18 
ROOT
HETATM    1  C   UNL     1     -21.215  -8.313  -1.727  1.00  0.00     0.151 A 
HETATM    2  C   UNL     1     -20.899  -7.928  -3.014  1.00  0.00     0.086 A 
HETATM    3  C   UNL     1     -21.363  -6.688  -3.409  1.00  0.00     0.047 A 
HETATM    4  N   UNL     1     -22.092  -5.907  -2.581  1.00  0.00    -0.352 N 
ATOM      5  HN  UNL     1     -22.414  -4.982  -2.866  1.00  0.00     0.166 HD
HETATM    6  C   UNL     1     -22.372  -6.402  -1.368  1.00  0.00     0.182 A 
HETATM    7  N   UNL     1     -21.976  -7.585  -0.894  1.00  0.00    -0.333 N 
ATOM      8  HN  UNL     1     -22.233  -7.913   0.037  1.00  0.00     0.168 HD
ENDROOT
BRANCH   1   9
HETATM    9  O   UNL     1     -20.697  -9.532  -1.299  1.00  0.00    -0.291 OA
BRANCH   9  10
HETATM   10  C   UNL     1     -21.233 -10.691  -1.836  1.00  0.00     0.105 A 
HETATM   11  C   UNL     1     -20.476 -11.421  -2.787  1.00  0.00     0.085 A 
HETATM   12  N   UNL     1     -19.215 -11.098  -3.299  1.00  0.00    -0.333 N 
HETATM   13  C   UNL     1     -21.023 -12.599  -3.305  1.00  0.00     0.038 A 
HETATM   14  C   UNL     1     -18.891 -11.950  -4.242  1.00  0.00     0.152 A 
ATOM     15  HN  UNL     1     -18.636 -10.317  -2.987  1.00  0.00     0.168 HD
HETATM   16  S   UNL     1     -19.937 -13.272  -4.449  1.00  0.00    -0.052 SA
HETATM   17  C   UNL     1     -22.276 -13.092  -2.912  1.00  0.00     0.021 A 
HETATM   18  C   UNL     1     -22.996 -12.374  -1.962  1.00  0.00     0.004 A 
HETATM   19  C   UNL     1     -22.476 -11.207  -1.416  1.00  0.00     0.040 A 
BRANCH  14  20
HETATM   20  N   UNL     1     -17.737 -11.822  -4.978  1.00  0.00    -0.307 N 
HETATM   21  C   UNL     1     -16.872 -10.749  -4.921  1.00  0.00     0.219 C 
HETATM   22  C   UNL     1     -15.709 -10.895  -5.867  1.00  0.00     0.117 C 
HETATM   23  O   UNL     1     -16.961  -9.757  -4.206  1.00  0.00    -0.274 OA
HETATM   24  H   UNL     1     -17.443 -12.678  -5.427  1.00  0.00     0.171 HD
ENDBRANCH  14  20
ENDBRANCH   9  10
ENDBRANCH   1   9
BRANCH   3  25
HETATM   25  C   UNL     1     -21.072  -6.106  -4.738  1.00  0.00    -0.009 A 
HETATM   26  C   UNL     1     -20.217  -5.000  -4.899  1.00  0.00     0.014 A 
HETATM   27  C   UNL     1     -19.966  -4.453  -6.165  1.00  0.00     0.017 A 
HETATM   28  C   UNL     1     -20.560  -4.994  -7.312  1.00  0.00     0.048 A 
HETATM   29  C   UNL     1     -21.401  -6.101  -7.168  1.00  0.00     0.017 A 
HETATM   30  C   UNL     1     -21.649  -6.646  -5.903  1.00  0.00     0.014 A 
BRANCH  28  31
HETATM   31  C   UNL     1     -20.300  -4.408  -8.678  1.00  0.00     0.417 C 
HETATM   32  F   UNL     1     -19.679  -5.270  -9.532  1.00  0.00    -0.166 F 
HETATM   33  F   UNL     1     -21.444  -4.020  -9.308  1.00  0.00    -0.166 F 
HETATM   34  F   UNL     1     -19.508  -3.302  -8.627  1.00  0.00    -0.166 F 
ENDBRANCH  28  31
ENDBRANCH   3  25
TORSDOF 5
ENDMDL
MODEL 3
REMARK VINA RESULT:      -8.4      2.498      2.822
REMARK  5 active torsions:
REMARK  status: ('A' for Active; 'I' for Inactive)
REMARK       I    between atoms: C_2  and  N_4 
REMARK    1  A    between atoms: N_4  and  C_5 
REMARK    2  A    between atoms: C_9  and  O_10 
REMARK    3  A    between atoms: O_10  and  C_11 
REMARK    4  A    between atoms: C_13  and  C_14 
REMARK    5  A    between atoms: C_17  and  C_18 
ROOT
HETATM    1  C   UNL     1     -21.816  -8.705  -2.809  1.00  0.00     0.151 A 
HETATM    2  C   UNL     1     -21.587  -8.263  -4.096  1.00  0.00     0.086 A 
HETATM    3  C   UNL     1     -21.484  -6.895  -4.260  1.00  0.00     0.047 A 
HETATM    4  N   UNL     1     -21.613  -6.044  -3.217  1.00  0.00    -0.352 N 
ATOM      5  HN  UNL     1     -21.515  -5.035  -3.337  1.00  0.00     0.166 HD
HETATM    6  C   UNL     1     -21.875  -6.585  -2.020  1.00  0.00     0.182 A 
HETATM    7  N   UNL     1     -21.995  -7.887  -1.758  1.00  0.00    -0.333 N 
ATOM      8  HN  UNL     1     -22.209  -8.238  -0.825  1.00  0.00     0.168 HD
ENDROOT
BRANCH   1   9
HETATM    9  O   UNL     1     -21.855 -10.083  -2.624  1.00  0.00    -0.291 OA
BRANCH   9  10
HETATM   10  C   UNL     1     -21.092 -10.624  -1.602  1.00  0.00     0.105 A 
HETATM   11  C   UNL     1     -19.714 -10.872  -1.832  1.00  0.00     0.085 A 
HETATM   12  N   UNL     1     -18.999 -10.661  -3.014  1.00  0.00    -0.333 N 
HETATM   13  C   UNL     1     -18.954 -11.400  -0.784  1.00  0.00     0.038 A 
HETATM   14  C   UNL     1     -17.776 -11.117  -2.877  1.00  0.00     0.152 A 
ATOM     15  HN  UNL     1     -19.370 -10.219  -3.856  1.00  0.00     0.168 HD
HETATM   16  S   UNL     1     -17.342 -11.638  -1.319  1.00  0.00    -0.052 SA
HETATM   17  C   UNL     1     -19.492 -11.678   0.482  1.00  0.00     0.021 A 
HETATM   18  C   UNL     1     -20.840 -11.408   0.696  1.00  0.00     0.004 A 
HETATM   19  C   UNL     1     -21.622 -10.870  -0.318  1.00  0.00     0.040 A 
BRANCH  14  20
HETATM   20  N   UNL     1     -16.874 -11.115  -3.914  1.00  0.00    -0.307 N 
HETATM   21  C   UNL     1     -16.973 -10.344  -5.053  1.00  0.00     0.219 C 
HETATM   22  C   UNL     1     -15.839 -10.585  -6.014  1.00  0.00     0.117 C 
HETATM   23  O   UNL     1     -17.845  -9.525  -5.326  1.00  0.00    -0.274 OA
HETATM   24  H   UNL     1     -16.001 -11.575  -3.696  1.00  0.00     0.171 HD
ENDBRANCH  14  20
ENDBRANCH   9  10
ENDBRANCH   1   9
BRANCH   3  25
HETATM   25  C   UNL     1     -21.194  -6.260  -5.565  1.00  0.00    -0.009 A 
HETATM   26  C   UNL     1     -19.942  -6.388  -6.195  1.00  0.00     0.014 A 
HETATM   27  C   UNL     1     -19.681  -5.767  -7.425  1.00  0.00     0.017 A 
HETATM   28  C   UNL     1     -20.662  -5.000  -8.065  1.00  0.00     0.048 A 
HETATM   29  C   UNL     1     -21.915  -4.876  -7.456  1.00  0.00     0.017 A 
HETATM   30  C   UNL     1     -22.174  -5.498  -6.230  1.00  0.00     0.014 A 
BRANCH  28  31
HETATM   31  C   UNL     1     -20.388  -4.322  -9.386  1.00  0.00     0.417 C 
HETATM   32  F   UNL     1     -21.513  -4.068 -10.112  1.00  0.00    -0.166 F 
HETATM   33  F   UNL     1     -19.760  -3.123  -9.240  1.00  0.00    -0.166 F 
HETATM   34  F   UNL     1     -19.586  -5.068 -10.195  1.00  0.00    -0.166 F 
ENDBRANCH  28  31
ENDBRANCH   3  25
TORSDOF 5
ENDMDL
MODEL 4
REMARK VINA RESULT:      -8.1      2.439      3.247
REMARK  5 active torsions:
REMARK  status: ('A' for Active; 'I' for Inactive)
REMARK       I    between atoms: C_2  and  N_4 
REMARK    1  A    between atoms: N_4  and  C_5 
REMARK    2  A    between atoms: C_9  and  O_10 
REMARK    3  A    between atoms: O_10  and  C_11 
REMARK    4  A    between atoms: C_13  and  C_14 
REMARK    5  A    between atoms: C_17  and  C_18 
ROOT
HETATM    1  C   UNL     1     -20.691  -8.567  -2.511  1.00  0.00     0.151 A 
HETATM    2  C   UNL     1     -20.596  -8.124  -3.815  1.00  0.00     0.086 A 
HETATM    3  C   UNL     1     -21.183  -6.903  -4.086  1.00  0.00     0.047 A 
HETATM    4  N   UNL     1     -21.821  -6.194  -3.128  1.00  0.00    -0.352 N 
ATOM      5  HN  UNL     1     -22.235  -5.282  -3.325  1.00  0.00     0.166 HD
HETATM    6  C   UNL     1     -21.886  -6.743  -1.907  1.00  0.00     0.182 A 
HETATM    7  N   UNL     1     -21.357  -7.913  -1.546  1.00  0.00    -0.333 N 
ATOM      8  HN  UNL     1     -21.451  -8.285  -0.600  1.00  0.00     0.168 HD
ENDROOT
BRANCH   1   9
HETATM    9  O   UNL     1     -20.047  -9.764  -2.214  1.00  0.00    -0.291 OA
BRANCH   9  10
HETATM   10  C   UNL     1     -18.863 -10.047  -2.875  1.00  0.00     0.105 A 
HETATM   11  C   UNL     1     -18.861 -11.042  -3.886  1.00  0.00     0.085 A 
HETATM   12  N   UNL     1     -19.937 -11.831  -4.303  1.00  0.00    -0.333 N 
HETATM   13  C   UNL     1     -17.661 -11.301  -4.556  1.00  0.00     0.038 A 
HETATM   14  C   UNL     1     -19.521 -12.717  -5.177  1.00  0.00     0.152 A 
ATOM     15  HN  UNL     1     -20.899 -11.733  -3.978  1.00  0.00     0.168 HD
HETATM   16  S   UNL     1     -17.912 -12.557  -5.697  1.00  0.00    -0.052 SA
HETATM   17  C   UNL     1     -16.472 -10.610  -4.282  1.00  0.00     0.021 A 
HETATM   18  C   UNL     1     -16.497  -9.622  -3.303  1.00  0.00     0.004 A 
HETATM   19  C   UNL     1     -17.675  -9.328  -2.627  1.00  0.00     0.040 A 
BRANCH  14  20
HETATM   20  N   UNL     1     -20.354 -13.681  -5.694  1.00  0.00    -0.307 N 
HETATM   21  C   UNL     1     -21.622 -13.455  -6.187  1.00  0.00     0.219 C 
HETATM   22  C   UNL     1     -22.289 -14.718  -6.662  1.00  0.00     0.117 C 
HETATM   23  O   UNL     1     -22.208 -12.381  -6.274  1.00  0.00    -0.274 OA
HETATM   24  H   UNL     1     -19.891 -14.558  -5.887  1.00  0.00     0.171 HD
ENDBRANCH  14  20
ENDBRANCH   9  10
ENDBRANCH   1   9
BRANCH   3  25
HETATM   25  C   UNL     1     -21.131  -6.264  -5.420  1.00  0.00    -0.009 A 
HETATM   26  C   UNL     1     -22.216  -5.532  -5.940  1.00  0.00     0.014 A 
HETATM   27  C   UNL     1     -22.154  -4.946  -7.212  1.00  0.00     0.017 A 
HETATM   28  C   UNL     1     -21.006  -5.071  -8.005  1.00  0.00     0.048 A 
HETATM   29  C   UNL     1     -19.916  -5.783  -7.494  1.00  0.00     0.017 A 
HETATM   30  C   UNL     1     -19.980  -6.366  -6.224  1.00  0.00     0.014 A 
BRANCH  28  31
HETATM   31  C   UNL     1     -20.931  -4.449  -9.378  1.00  0.00     0.417 C 
HETATM   32  F   UNL     1     -21.954  -4.816 -10.200  1.00  0.00    -0.166 F 
HETATM   33  F   UNL     1     -20.956  -3.087  -9.339  1.00  0.00    -0.166 F 
HETATM   34  F   UNL     1     -19.788  -4.783 -10.038  1.00  0.00    -0.166 F 
ENDBRANCH  28  31
ENDBRANCH   3  25
TORSDOF 5
ENDMDL
MODEL 5
REMARK VINA RESULT:      -8.0      6.071      8.095
REMARK  5 active torsions:
REMARK  status: ('A' for Active; 'I' for Inactive)
REMARK       I    between atoms: C_2  and  N_4 
REMARK    1  A    between atoms: N_4  and  C_5 
REMARK    2  A    between atoms: C_9  and  O_10 
REMARK    3  A    between atoms: O_10  and  C_11 
REMARK    4  A    between atoms: C_13  and  C_14 
REMARK    5  A    between atoms: C_17  and  C_18 
ROOT
HETATM    1  C   UNL     1     -16.577 -10.299  -4.535  1.00  0.00     0.151 A 
HETATM    2  C   UNL     1     -17.368  -9.890  -3.481  1.00  0.00     0.086 A 
HETATM    3  C   UNL     1     -18.720  -9.779  -3.742  1.00  0.00     0.047 A 
HETATM    4  N   UNL     1     -19.230 -10.047  -4.966  1.00  0.00    -0.352 N 
ATOM      5  HN  UNL     1     -20.232  -9.985  -5.151  1.00  0.00     0.166 HD
HETATM    6  C   UNL     1     -18.361 -10.396  -5.924  1.00  0.00     0.182 A 
HETATM    7  N   UNL     1     -17.042 -10.528  -5.774  1.00  0.00    -0.333 N 
ATOM      8  HN  UNL     1     -16.429 -10.785  -6.548  1.00  0.00     0.168 HD
ENDROOT
BRANCH   1   9
HETATM    9  O   UNL     1     -15.224 -10.477  -4.264  1.00  0.00    -0.291 OA
BRANCH   9  10
HETATM   10  C   UNL     1     -14.670 -11.723  -4.506  1.00  0.00     0.105 A 
HETATM   11  C   UNL     1     -14.709 -12.703  -3.481  1.00  0.00     0.085 A 
HETATM   12  N   UNL     1     -15.229 -12.562  -2.190  1.00  0.00    -0.333 N 
HETATM   13  C   UNL     1     -14.163 -13.962  -3.748  1.00  0.00     0.038 A 
HETATM   14  C   UNL     1     -14.979 -13.645  -1.494  1.00  0.00     0.152 A 
ATOM     15  HN  UNL     1     -15.726 -11.741  -1.843  1.00  0.00     0.168 HD
HETATM   16  S   UNL     1     -14.301 -14.947  -2.350  1.00  0.00    -0.052 SA
HETATM   17  C   UNL     1     -13.597 -14.298  -4.987  1.00  0.00     0.021 A 
HETATM   18  C   UNL     1     -13.587 -13.332  -5.988  1.00  0.00     0.004 A 
HETATM   19  C   UNL     1     -14.134 -12.075  -5.762  1.00  0.00     0.040 A 
BRANCH  14  20
HETATM   20  N   UNL     1     -15.304 -13.750  -0.162  1.00  0.00    -0.307 N 
HETATM   21  C   UNL     1     -15.544 -12.688   0.684  1.00  0.00     0.219 C 
HETATM   22  C   UNL     1     -15.855 -13.129   2.090  1.00  0.00     0.117 C 
HETATM   23  O   UNL     1     -15.536 -11.494   0.403  1.00  0.00    -0.274 OA
HETATM   24  H   UNL     1     -15.566 -14.684   0.121  1.00  0.00     0.171 HD
ENDBRANCH  14  20
ENDBRANCH   9  10
ENDBRANCH   1   9
BRANCH   3  25
HETATM   25  C   UNL     1     -19.710  -9.398  -2.711  1.00  0.00    -0.009 A 
HETATM   26  C   UNL     1     -20.036 -10.250  -1.638  1.00  0.00     0.014 A 
HETATM   27  C   UNL     1     -20.988  -9.878  -0.678  1.00  0.00     0.017 A 
HETATM   28  C   UNL     1     -21.644  -8.644  -0.758  1.00  0.00     0.048 A 
HETATM   29  C   UNL     1     -21.321  -7.783  -1.812  1.00  0.00     0.017 A 
HETATM   30  C   UNL     1     -20.369  -8.155  -2.768  1.00  0.00     0.014 A 
BRANCH  28  31
HETATM   31  C   UNL     1     -22.675  -8.237   0.266  1.00  0.00     0.417 C 
HETATM   32  F   UNL     1     -22.158  -8.037   1.511  1.00  0.00    -0.166 F 
HETATM   33  F   UNL     1     -23.313  -7.079  -0.062  1.00  0.00    -0.166 F 
HETATM   34  F   UNL     1     -23.653  -9.173   0.418  1.00  0.00    -0.166 F 
ENDBRANCH  28  31
ENDBRANCH   3  25
TORSDOF 5
ENDMDL
MODEL 6
REMARK VINA RESULT:      -7.9      2.800      3.202
REMARK  5 active torsions:
REMARK  status: ('A' for Active; 'I' for Inactive)
REMARK       I    between atoms: C_2  and  N_4 
REMARK    1  A    between atoms: N_4  and  C_5 
REMARK    2  A    between atoms: C_9  and  O_10 
REMARK    3  A    between atoms: O_10  and  C_11 
REMARK    4  A    between atoms: C_13  and  C_14 
REMARK    5  A    between atoms: C_17  and  C_18 
ROOT
HETATM    1  C   UNL     1     -21.250  -9.270   0.096  1.00  0.00     0.151 A 
HETATM    2  C   UNL     1     -20.955  -8.919  -1.206  1.00  0.00     0.086 A 
HETATM    3  C   UNL     1     -21.630  -7.823  -1.708  1.00  0.00     0.047 A 
HETATM    4  N   UNL     1     -22.534  -7.146  -0.965  1.00  0.00    -0.352 N 
ATOM      5  HN  UNL     1     -23.015  -6.323  -1.330  1.00  0.00     0.166 HD
HETATM    6  C   UNL     1     -22.769  -7.603   0.272  1.00  0.00     0.182 A 
HETATM    7  N   UNL     1     -22.175  -8.650   0.846  1.00  0.00    -0.333 N 
ATOM      8  HN  UNL     1     -22.407  -8.958   1.791  1.00  0.00     0.168 HD
ENDROOT
BRANCH   1   9
HETATM    9  O   UNL     1     -20.527 -10.332   0.631  1.00  0.00    -0.291 OA
BRANCH   9  10
HETATM   10  C   UNL     1     -20.884 -11.616   0.256  1.00  0.00     0.105 A 
HETATM   11  C   UNL     1     -19.994 -12.368  -0.554  1.00  0.00     0.085 A 
HETATM   12  N   UNL     1     -18.762 -11.955  -1.071  1.00  0.00    -0.333 N 
HETATM   13  C   UNL     1     -20.361 -13.669  -0.908  1.00  0.00     0.038 A 
HETATM   14  C   UNL     1     -18.285 -12.882  -1.867  1.00  0.00     0.152 A 
ATOM     15  HN  UNL     1     -18.303 -11.068  -0.861  1.00  0.00     0.168 HD
HETATM   16  S   UNL     1     -19.143 -14.348  -1.908  1.00  0.00    -0.052 SA
HETATM   17  C   UNL     1     -21.558 -14.264  -0.484  1.00  0.00     0.021 A 
HETATM   18  C   UNL     1     -22.409 -13.521   0.328  1.00  0.00     0.004 A 
HETATM   19  C   UNL     1     -22.070 -12.229   0.711  1.00  0.00     0.040 A 
BRANCH  14  20
HETATM   20  N   UNL     1     -17.122 -12.707  -2.580  1.00  0.00    -0.307 N 
HETATM   21  C   UNL     1     -16.048 -11.945  -2.173  1.00  0.00     0.219 C 
HETATM   22  C   UNL     1     -14.933 -11.934  -3.186  1.00  0.00     0.117 C 
HETATM   23  O   UNL     1     -15.928 -11.324  -1.122  1.00  0.00    -0.274 OA
HETATM   24  H   UNL     1     -17.015 -13.354  -3.349  1.00  0.00     0.171 HD
ENDBRANCH  14  20
ENDBRANCH   9  10
ENDBRANCH   1   9
BRANCH   3  25
HETATM   25  C   UNL     1     -21.397  -7.288  -3.068  1.00  0.00    -0.009 A 
HETATM   26  C   UNL     1     -21.500  -8.095  -4.216  1.00  0.00     0.014 A 
HETATM   27  C   UNL     1     -21.261  -7.574  -5.495  1.00  0.00     0.017 A 
HETATM   28  C   UNL     1     -20.912  -6.229  -5.669  1.00  0.00     0.048 A 
HETATM   29  C   UNL     1     -20.819  -5.412  -4.537  1.00  0.00     0.017 A 
HETATM   30  C   UNL     1     -21.060  -5.935  -3.262  1.00  0.00     0.014 A 
BRANCH  28  31
HETATM   31  C   UNL     1     -20.646  -5.659  -7.041  1.00  0.00     0.417 C 
HETATM   32  F   UNL     1     -19.487  -6.105  -7.602  1.00  0.00    -0.166 F 
HETATM   33  F   UNL     1     -21.630  -5.959  -7.933  1.00  0.00    -0.166 F 
HETATM   34  F   UNL     1     -20.553  -4.301  -7.030  1.00  0.00    -0.166 F 
ENDBRANCH  28  31
ENDBRANCH   3  25
TORSDOF 5
ENDMDL
MODEL 7
REMARK VINA RESULT:      -7.8      4.738      7.406
REMARK  5 active torsions:
REMARK  status: ('A' for Active; 'I' for Inactive)
REMARK       I    between atoms: C_2  and  N_4 
REMARK    1  A    between atoms: N_4  and  C_5 
REMARK    2  A    between atoms: C_9  and  O_10 
REMARK    3  A    between atoms: O_10  and  C_11 
REMARK    4  A    between atoms: C_13  and  C_14 
REMARK    5  A    between atoms: C_17  and  C_18 
ROOT
HETATM    1  C   UNL     1     -21.187 -12.100  -6.409  1.00  0.00     0.151 A 
HETATM    2  C   UNL     1     -21.205 -11.148  -5.410  1.00  0.00     0.086 A 
HETATM    3  C   UNL     1     -22.017 -11.419  -4.326  1.00  0.00     0.047 A 
HETATM    4  N   UNL     1     -22.758 -12.548  -4.260  1.00  0.00    -0.352 N 
ATOM      5  HN  UNL     1     -23.340 -12.757  -3.449  1.00  0.00     0.166 HD
HETATM    6  C   UNL     1     -22.693 -13.380  -5.308  1.00  0.00     0.182 A 
HETATM    7  N   UNL     1     -21.945 -13.209  -6.399  1.00  0.00    -0.333 N 
ATOM      8  HN  UNL     1     -21.948 -13.874  -7.172  1.00  0.00     0.168 HD
ENDROOT
BRANCH   1   9
HETATM    9  O   UNL     1     -20.322 -11.866  -7.474  1.00  0.00    -0.291 OA
BRANCH   9  10
HETATM   10  C   UNL     1     -19.292 -12.768  -7.685  1.00  0.00     0.105 A 
HETATM   11  C   UNL     1     -18.132 -12.687  -6.872  1.00  0.00     0.085 A 
HETATM   12  N   UNL     1     -17.867 -11.759  -5.860  1.00  0.00    -0.333 N 
HETATM   13  C   UNL     1     -17.110 -13.617  -7.084  1.00  0.00     0.038 A 
HETATM   14  C   UNL     1     -16.645 -11.931  -5.414  1.00  0.00     0.152 A 
ATOM     15  HN  UNL     1     -18.523 -11.055  -5.521  1.00  0.00     0.168 HD
HETATM   16  S   UNL     1     -15.815 -13.290  -6.008  1.00  0.00    -0.052 SA
HETATM   17  C   UNL     1     -17.191 -14.629  -8.052  1.00  0.00     0.021 A 
HETATM   18  C   UNL     1     -18.345 -14.707  -8.825  1.00  0.00     0.004 A 
HETATM   19  C   UNL     1     -19.387 -13.809  -8.632  1.00  0.00     0.040 A 
BRANCH  14  20
HETATM   20  N   UNL     1     -16.087 -11.101  -4.471  1.00  0.00    -0.307 N 
HETATM   21  C   UNL     1     -16.790 -10.246  -3.648  1.00  0.00     0.219 C 
HETATM   22  C   UNL     1     -15.891  -9.452  -2.738  1.00  0.00     0.117 C 
HETATM   23  O   UNL     1     -18.006 -10.097  -3.592  1.00  0.00    -0.274 OA
HETATM   24  H   UNL     1     -15.119 -11.307  -4.269  1.00  0.00     0.171 HD
ENDBRANCH  14  20
ENDBRANCH   9  10
ENDBRANCH   1   9
BRANCH   3  25
HETATM   25  C   UNL     1     -22.115 -10.526  -3.150  1.00  0.00    -0.009 A 
HETATM   26  C   UNL     1     -21.488  -9.267  -3.115  1.00  0.00     0.014 A 
HETATM   27  C   UNL     1     -21.579  -8.441  -1.986  1.00  0.00     0.017 A 
HETATM   28  C   UNL     1     -22.300  -8.846  -0.856  1.00  0.00     0.048 A 
HETATM   29  C   UNL     1     -22.939 -10.090  -0.883  1.00  0.00     0.017 A 
HETATM   30  C   UNL     1     -22.848 -10.912  -2.011  1.00  0.00     0.014 A 
BRANCH  28  31
HETATM   31  C   UNL     1     -22.398  -7.967   0.367  1.00  0.00     0.417 C 
HETATM   32  F   UNL     1     -23.594  -8.064   1.014  1.00  0.00    -0.166 F 
HETATM   33  F   UNL     1     -21.447  -8.255   1.298  1.00  0.00    -0.166 F 
HETATM   34  F   UNL     1     -22.244  -6.647   0.071  1.00  0.00    -0.166 F 
ENDBRANCH  28  31
ENDBRANCH   3  25
TORSDOF 5
ENDMDL
MODEL 8
REMARK VINA RESULT:      -7.8     17.060     19.383
REMARK  5 active torsions:
REMARK  status: ('A' for Active; 'I' for Inactive)
REMARK       I    between atoms: C_2  and  N_4 
REMARK    1  A    between atoms: N_4  and  C_5 
REMARK    2  A    between atoms: C_9  and  O_10 
REMARK    3  A    between atoms: O_10  and  C_11 
REMARK    4  A    between atoms: C_13  and  C_14 
REMARK    5  A    between atoms: C_17  and  C_18 
ROOT
HETATM    1  C   UNL     1     -21.826   9.421   2.679  1.00  0.00     0.151 A 
HETATM    2  C   UNL     1     -22.154   8.746   1.521  1.00  0.00     0.086 A 
HETATM    3  C   UNL     1     -23.486   8.776   1.155  1.00  0.00     0.047 A 
HETATM    4  N   UNL     1     -24.411   9.423   1.900  1.00  0.00    -0.352 N 
ATOM      5  HN  UNL     1     -25.390   9.463   1.616  1.00  0.00     0.166 HD
HETATM    6  C   UNL     1     -23.983  10.009   3.026  1.00  0.00     0.182 A 
HETATM    7  N   UNL     1     -22.724  10.034   3.467  1.00  0.00    -0.333 N 
ATOM      8  HN  UNL     1     -22.462  10.487   4.342  1.00  0.00     0.168 HD
ENDROOT
BRANCH   1   9
HETATM    9  O   UNL     1     -20.477   9.451   3.019  1.00  0.00    -0.291 OA
BRANCH   9  10
HETATM   10  C   UNL     1     -20.144   9.378   4.362  1.00  0.00     0.105 A 
HETATM   11  C   UNL     1     -18.783   9.515   4.740  1.00  0.00     0.085 A 
HETATM   12  N   UNL     1     -17.681   9.692   3.897  1.00  0.00    -0.333 N 
HETATM   13  C   UNL     1     -18.466   9.459   6.100  1.00  0.00     0.038 A 
HETATM   14  C   UNL     1     -16.576   9.661   4.605  1.00  0.00     0.152 A 
ATOM     15  HN  UNL     1     -17.728   9.826   2.887  1.00  0.00     0.168 HD
HETATM   16  S   UNL     1     -16.768   9.615   6.292  1.00  0.00    -0.052 SA
HETATM   17  C   UNL     1     -19.434   9.290   7.101  1.00  0.00     0.021 A 
HETATM   18  C   UNL     1     -20.766   9.180   6.714  1.00  0.00     0.004 A 
HETATM   19  C   UNL     1     -21.119   9.246   5.371  1.00  0.00     0.040 A 
BRANCH  14  20
HETATM   20  N   UNL     1     -15.333   9.727   4.022  1.00  0.00    -0.307 N 
HETATM   21  C   UNL     1     -15.039   9.344   2.730  1.00  0.00     0.219 C 
HETATM   22  C   UNL     1     -13.581   9.516   2.395  1.00  0.00     0.117 C 
HETATM   23  O   UNL     1     -15.815   8.912   1.884  1.00  0.00    -0.274 OA
HETATM   24  H   UNL     1     -14.667  10.279   4.544  1.00  0.00     0.171 HD
ENDBRANCH  14  20
ENDBRANCH   9  10
ENDBRANCH   1   9
BRANCH   3  25
HETATM   25  C   UNL     1     -23.996   8.143  -0.081  1.00  0.00    -0.009 A 
HETATM   26  C   UNL     1     -25.246   8.481  -0.632  1.00  0.00     0.014 A 
HETATM   27  C   UNL     1     -25.719   7.859  -1.796  1.00  0.00     0.017 A 
HETATM   28  C   UNL     1     -24.958   6.882  -2.448  1.00  0.00     0.048 A 
HETATM   29  C   UNL     1     -23.708   6.546  -1.919  1.00  0.00     0.017 A 
HETATM   30  C   UNL     1     -23.237   7.169  -0.758  1.00  0.00     0.014 A 
BRANCH  28  31
HETATM   31  C   UNL     1     -25.461   6.202  -3.699  1.00  0.00     0.417 C 
HETATM   32  F   UNL     1     -26.803   6.340  -3.893  1.00  0.00    -0.166 F 
HETATM   33  F   UNL     1     -24.871   6.681  -4.829  1.00  0.00    -0.166 F 
HETATM   34  F   UNL     1     -25.224   4.861  -3.692  1.00  0.00    -0.166 F 
ENDBRANCH  28  31
ENDBRANCH   3  25
TORSDOF 5
ENDMDL
MODEL 9
REMARK VINA RESULT:      -7.8     17.130     19.805
REMARK  5 active torsions:
REMARK  status: ('A' for Active; 'I' for Inactive)
REMARK       I    between atoms: C_2  and  N_4 
REMARK    1  A    between atoms: N_4  and  C_5 
REMARK    2  A    between atoms: C_9  and  O_10 
REMARK    3  A    between atoms: O_10  and  C_11 
REMARK    4  A    between atoms: C_13  and  C_14 
REMARK    5  A    between atoms: C_17  and  C_18 
ROOT
HETATM    1  C   UNL     1     -21.468   9.343   2.659  1.00  0.00     0.151 A 
HETATM    2  C   UNL     1     -21.861   8.697   1.504  1.00  0.00     0.086 A 
HETATM    3  C   UNL     1     -23.213   8.722   1.223  1.00  0.00     0.047 A 
HETATM    4  N   UNL     1     -24.096   9.338   2.042  1.00  0.00    -0.352 N 
ATOM      5  HN  UNL     1     -25.092   9.375   1.821  1.00  0.00     0.166 HD
HETATM    6  C   UNL     1     -23.605   9.897   3.156  1.00  0.00     0.182 A 
HETATM    7  N   UNL     1     -22.321   9.923   3.518  1.00  0.00    -0.333 N 
ATOM      8  HN  UNL     1     -22.010  10.355   4.388  1.00  0.00     0.168 HD
ENDROOT
BRANCH   1   9
HETATM    9  O   UNL     1     -20.101   9.378   2.916  1.00  0.00    -0.291 OA
BRANCH   9  10
HETATM   10  C   UNL     1     -19.335  10.310   2.235  1.00  0.00     0.105 A 
HETATM   11  C   UNL     1     -17.981  10.497   2.616  1.00  0.00     0.085 A 
HETATM   12  N   UNL     1     -17.295   9.858   3.653  1.00  0.00    -0.333 N 
HETATM   13  C   UNL     1     -17.217  11.428   1.906  1.00  0.00     0.038 A 
HETATM   14  C   UNL     1     -16.096  10.376   3.772  1.00  0.00     0.152 A 
ATOM     15  HN  UNL     1     -17.669   9.103   4.228  1.00  0.00     0.168 HD
HETATM   16  S   UNL     1     -15.639  11.492   2.576  1.00  0.00    -0.052 SA
HETATM   17  C   UNL     1     -17.727  12.168   0.829  1.00  0.00     0.021 A 
HETATM   18  C   UNL     1     -19.050  11.956   0.455  1.00  0.00     0.004 A 
HETATM   19  C   UNL     1     -19.835  11.028   1.129  1.00  0.00     0.040 A 
BRANCH  14  20
HETATM   20  N   UNL     1     -15.230   9.994   4.770  1.00  0.00    -0.307 N 
HETATM   21  C   UNL     1     -14.646   8.749   4.882  1.00  0.00     0.219 C 
HETATM   22  C   UNL     1     -13.763   8.634   6.096  1.00  0.00     0.117 C 
HETATM   23  O   UNL     1     -14.770   7.795   4.121  1.00  0.00    -0.274 OA
HETATM   24  H   UNL     1     -14.875  10.764   5.319  1.00  0.00     0.171 HD
ENDBRANCH  14  20
ENDBRANCH   9  10
ENDBRANCH   1   9
BRANCH   3  25
HETATM   25  C   UNL     1     -23.793   8.118   0.003  1.00  0.00    -0.009 A 
HETATM   26  C   UNL     1     -25.083   8.449  -0.453  1.00  0.00     0.014 A 
HETATM   27  C   UNL     1     -25.622   7.855  -1.603  1.00  0.00     0.017 A 
HETATM   28  C   UNL     1     -24.889   6.913  -2.336  1.00  0.00     0.048 A 
HETATM   29  C   UNL     1     -23.600   6.586  -1.901  1.00  0.00     0.017 A 
HETATM   30  C   UNL     1     -23.064   7.181  -0.754  1.00  0.00     0.014 A 
BRANCH  28  31
HETATM   31  C   UNL     1     -25.462   6.264  -3.572  1.00  0.00     0.417 C 
HETATM   32  F   UNL     1     -25.183   4.934  -3.669  1.00  0.00    -0.166 F 
HETATM   33  F   UNL     1     -26.819   6.365  -3.636  1.00  0.00    -0.166 F 
HETATM   34  F   UNL     1     -24.990   6.826  -4.719  1.00  0.00    -0.166 F 
ENDBRANCH  28  31
ENDBRANCH   3  25
TORSDOF 5
ENDMDL
