MODEL 1
REMARK VINA RESULT:      -4.7      0.000      0.000
REMARK  5 active torsions:
REMARK  status: ('A' for Active; 'I' for Inactive)
REMARK    1  A    between atoms: C_2  and  C_3 
REMARK    2  A    between atoms: C_3  and  S_4 
REMARK    3  A    between atoms: S_4  and  S_5 
REMARK    4  A    between atoms: S_5  and  C_7 
REMARK    5  A    between atoms: C_7  and  C_8 
ROOT
HETATM    1  S   UNL     1     -35.360  -1.855 -10.884  1.00  0.00     0.081 S 
HETATM    2  O   UNL     1     -36.172  -3.115 -10.933  1.00  0.00    -0.246 OA
ENDROOT
BRANCH   1   3
HETATM    3  S   UNL     1     -35.372  -1.374 -12.854  1.00  0.00    -0.062 SA
BRANCH   3   4
HETATM    4  C   UNL     1     -35.105   0.419 -12.781  1.00  0.00     0.114 C 
BRANCH   4   5
HETATM    5  C   UNL     1     -34.665   0.911 -14.128  1.00  0.00    -0.026 C 
HETATM    6  C   UNL     1     -35.488   1.139 -15.161  1.00  0.00     0.007 C 
ENDBRANCH   4   5
ENDBRANCH   3   4
ENDBRANCH   1   3
BRANCH   1   7
HETATM    7  C   UNL     1     -33.608  -2.303 -10.634  1.00  0.00     0.147 C 
BRANCH   7   8
HETATM    8  C   UNL     1     -33.385  -3.755 -10.937  1.00  0.00    -0.024 C 
HETATM    9  C   UNL     1     -32.691  -4.215 -11.987  1.00  0.00     0.008 C 
ENDBRANCH   7   8
ENDBRANCH   1   7
TORSDOF 5
ENDMDL
MODEL 2
REMARK VINA RESULT:      -4.5      2.189      5.428
REMARK  5 active torsions:
REMARK  status: ('A' for Active; 'I' for Inactive)
REMARK    1  A    between atoms: C_2  and  C_3 
REMARK    2  A    between atoms: C_3  and  S_4 
REMARK    3  A    between atoms: S_4  and  S_5 
REMARK    4  A    between atoms: S_5  and  C_7 
REMARK    5  A    between atoms: C_7  and  C_8 
ROOT
HETATM    1  S   UNL     1     -34.845  -2.242 -11.584  1.00  0.00     0.081 S 
HETATM    2  O   UNL     1     -33.758  -1.538 -10.829  1.00  0.00    -0.246 OA
ENDROOT
BRANCH   1   3
HETATM    3  S   UNL     1     -33.762  -3.747 -12.404  1.00  0.00    -0.062 SA
BRANCH   3   4
HETATM    4  C   UNL     1     -34.775  -5.188 -11.973  1.00  0.00     0.114 C 
BRANCH   4   5
HETATM    5  C   UNL     1     -34.053  -6.016 -10.951  1.00  0.00    -0.026 C 
HETATM    6  C   UNL     1     -34.652  -6.815 -10.056  1.00  0.00     0.007 C 
ENDBRANCH   4   5
ENDBRANCH   3   4
ENDBRANCH   1   3
BRANCH   1   7
HETATM    7  C   UNL     1     -35.262  -1.253 -13.060  1.00  0.00     0.147 C 
BRANCH   7   8
HETATM    8  C   UNL     1     -34.947   0.196 -12.832  1.00  0.00    -0.024 C 
HETATM    9  C   UNL     1     -34.710   1.085 -13.806  1.00  0.00     0.008 C 
ENDBRANCH   7   8
ENDBRANCH   1   7
TORSDOF 5
ENDMDL
MODEL 3
REMARK VINA RESULT:      -4.3      3.029      4.938
REMARK  5 active torsions:
REMARK  status: ('A' for Active; 'I' for Inactive)
REMARK    1  A    between atoms: C_2  and  C_3 
REMARK    2  A    between atoms: C_3  and  S_4 
REMARK    3  A    between atoms: S_4  and  S_5 
REMARK    4  A    between atoms: S_5  and  C_7 
REMARK    5  A    between atoms: C_7  and  C_8 
ROOT
HETATM    1  S   UNL     1     -36.864  -0.171 -11.259  1.00  0.00     0.081 S 
HETATM    2  O   UNL     1     -38.072  -0.848 -11.835  1.00  0.00    -0.246 OA
ENDROOT
BRANCH   1   3
HETATM    3  S   UNL     1     -35.964  -1.771 -10.397  1.00  0.00    -0.062 SA
BRANCH   3   4
HETATM    4  C   UNL     1     -34.549  -2.018 -11.505  1.00  0.00     0.114 C 
BRANCH   4   5
HETATM    5  C   UNL     1     -33.704  -3.145 -10.987  1.00  0.00    -0.026 C 
HETATM    6  C   UNL     1     -32.799  -3.815 -11.715  1.00  0.00     0.007 C 
ENDBRANCH   4   5
ENDBRANCH   3   4
ENDBRANCH   1   3
BRANCH   1   7
HETATM    7  C   UNL     1     -37.378   0.786  -9.792  1.00  0.00     0.147 C 
BRANCH   7   8
HETATM    8  C   UNL     1     -36.915   0.114  -8.533  1.00  0.00    -0.024 C 
HETATM    9  C   UNL     1     -36.666   0.749  -7.379  1.00  0.00     0.008 C 
ENDBRANCH   7   8
ENDBRANCH   1   7
TORSDOF 5
ENDMDL
MODEL 4
REMARK VINA RESULT:      -4.1      3.070      3.943
REMARK  5 active torsions:
REMARK  status: ('A' for Active; 'I' for Inactive)
REMARK    1  A    between atoms: C_2  and  C_3 
REMARK    2  A    between atoms: C_3  and  S_4 
REMARK    3  A    between atoms: S_4  and  S_5 
REMARK    4  A    between atoms: S_5  and  C_7 
REMARK    5  A    between atoms: C_7  and  C_8 
ROOT
HETATM    1  S   UNL     1     -36.660  -0.939 -10.567  1.00  0.00     0.081 S 
HETATM    2  O   UNL     1     -35.193  -1.203 -10.408  1.00  0.00    -0.246 OA
ENDROOT
BRANCH   1   3
HETATM    3  S   UNL     1     -36.664  -0.201 -12.456  1.00  0.00    -0.062 SA
BRANCH   3   4
HETATM    4  C   UNL     1     -34.900   0.144 -12.703  1.00  0.00     0.114 C 
BRANCH   4   5
HETATM    5  C   UNL     1     -34.732   1.050 -13.887  1.00  0.00    -0.026 C 
HETATM    6  C   UNL     1     -35.444   0.963 -15.020  1.00  0.00     0.007 C 
ENDBRANCH   4   5
ENDBRANCH   3   4
ENDBRANCH   1   3
BRANCH   1   7
HETATM    7  C   UNL     1     -37.091   0.548  -9.600  1.00  0.00     0.147 C 
BRANCH   7   8
HETATM    8  C   UNL     1     -37.041   0.255  -8.129  1.00  0.00    -0.024 C 
HETATM    9  C   UNL     1     -36.929   1.186  -7.172  1.00  0.00     0.008 C 
ENDBRANCH   7   8
ENDBRANCH   1   7
TORSDOF 5
ENDMDL
MODEL 5
REMARK VINA RESULT:      -4.1     15.598     17.118
REMARK  5 active torsions:
REMARK  status: ('A' for Active; 'I' for Inactive)
REMARK    1  A    between atoms: C_2  and  C_3 
REMARK    2  A    between atoms: C_3  and  S_4 
REMARK    3  A    between atoms: S_4  and  S_5 
REMARK    4  A    between atoms: S_5  and  C_7 
REMARK    5  A    between atoms: C_7  and  C_8 
ROOT
HETATM    1  S   UNL     1     -21.909  -7.015  -4.606  1.00  0.00     0.081 S 
HETATM    2  O   UNL     1     -23.039  -6.136  -5.052  1.00  0.00    -0.246 OA
ENDROOT
BRANCH   1   3
HETATM    3  S   UNL     1     -21.588  -6.237  -2.761  1.00  0.00    -0.062 SA
BRANCH   3   4
HETATM    4  C   UNL     1     -21.661  -7.728  -1.731  1.00  0.00     0.114 C 
BRANCH   4   5
HETATM    5  C   UNL     1     -22.196  -7.370  -0.376  1.00  0.00    -0.026 C 
HETATM    6  C   UNL     1     -23.062  -8.118   0.323  1.00  0.00     0.007 C 
ENDBRANCH   4   5
ENDBRANCH   3   4
ENDBRANCH   1   3
BRANCH   1   7
HETATM    7  C   UNL     1     -20.392  -6.500  -5.482  1.00  0.00     0.147 C 
BRANCH   7   8
HETATM    8  C   UNL     1     -20.349  -5.008  -5.633  1.00  0.00    -0.024 C 
HETATM    9  C   UNL     1     -20.396  -4.360  -6.805  1.00  0.00     0.008 C 
ENDBRANCH   7   8
ENDBRANCH   1   7
TORSDOF 5
ENDMDL
MODEL 6
REMARK VINA RESULT:      -4.1      1.865      4.872
REMARK  5 active torsions:
REMARK  status: ('A' for Active; 'I' for Inactive)
REMARK    1  A    between atoms: C_2  and  C_3 
REMARK    2  A    between atoms: C_3  and  S_4 
REMARK    3  A    between atoms: S_4  and  S_5 
REMARK    4  A    between atoms: S_5  and  C_7 
REMARK    5  A    between atoms: C_7  and  C_8 
ROOT
HETATM    1  S   UNL     1     -36.032   0.013 -11.977  1.00  0.00     0.081 S 
HETATM    2  O   UNL     1     -34.614   0.329 -12.349  1.00  0.00    -0.246 OA
ENDROOT
BRANCH   1   3
HETATM    3  S   UNL     1     -35.777  -1.864 -11.253  1.00  0.00    -0.062 SA
BRANCH   3   4
HETATM    4  C   UNL     1     -34.445  -2.476 -12.321  1.00  0.00     0.114 C 
BRANCH   4   5
HETATM    5  C   UNL     1     -33.406  -3.155 -11.479  1.00  0.00    -0.026 C 
HETATM    6  C   UNL     1     -32.665  -4.198 -11.878  1.00  0.00     0.007 C 
ENDBRANCH   4   5
ENDBRANCH   3   4
ENDBRANCH   1   3
BRANCH   1   7
HETATM    7  C   UNL     1     -36.975  -0.315 -13.504  1.00  0.00     0.147 C 
BRANCH   7   8
HETATM    8  C   UNL     1     -36.094  -0.174 -14.711  1.00  0.00    -0.024 C 
HETATM    9  C   UNL     1     -36.053   0.908 -15.500  1.00  0.00     0.008 C 
ENDBRANCH   7   8
ENDBRANCH   1   7
TORSDOF 5
ENDMDL
MODEL 7
REMARK VINA RESULT:      -4.1     16.252     17.141
REMARK  5 active torsions:
REMARK  status: ('A' for Active; 'I' for Inactive)
REMARK    1  A    between atoms: C_2  and  C_3 
REMARK    2  A    between atoms: C_3  and  S_4 
REMARK    3  A    between atoms: S_4  and  S_5 
REMARK    4  A    between atoms: S_5  and  C_7 
REMARK    5  A    between atoms: C_7  and  C_8 
ROOT
HETATM    1  S   UNL     1     -21.319  -6.912  -2.654  1.00  0.00     0.081 S 
HETATM    2  O   UNL     1     -22.479  -5.961  -2.650  1.00  0.00    -0.246 OA
ENDROOT
BRANCH   1   3
HETATM    3  S   UNL     1     -21.635  -7.815  -4.442  1.00  0.00    -0.062 SA
BRANCH   3   4
HETATM    4  C   UNL     1     -20.203  -7.231  -5.391  1.00  0.00     0.114 C 
BRANCH   4   5
HETATM    5  C   UNL     1     -20.553  -5.943  -6.076  1.00  0.00    -0.026 C 
HETATM    6  C   UNL     1     -20.234  -4.725  -5.617  1.00  0.00     0.007 C 
ENDBRANCH   4   5
ENDBRANCH   3   4
ENDBRANCH   1   3
BRANCH   1   7
HETATM    7  C   UNL     1     -21.682  -8.274  -1.495  1.00  0.00     0.147 C 
BRANCH   7   8
HETATM    8  C   UNL     1     -22.054  -7.735  -0.145  1.00  0.00    -0.024 C 
HETATM    9  C   UNL     1     -23.162  -8.072   0.529  1.00  0.00     0.008 C 
ENDBRANCH   7   8
ENDBRANCH   1   7
TORSDOF 5
ENDMDL
MODEL 8
REMARK VINA RESULT:      -4.0     14.552     16.163
REMARK  5 active torsions:
REMARK  status: ('A' for Active; 'I' for Inactive)
REMARK    1  A    between atoms: C_2  and  C_3 
REMARK    2  A    between atoms: C_3  and  S_4 
REMARK    3  A    between atoms: S_4  and  S_5 
REMARK    4  A    between atoms: S_5  and  C_7 
REMARK    5  A    between atoms: C_7  and  C_8 
ROOT
HETATM    1  S   UNL     1     -20.416  -5.313  -6.187  1.00  0.00     0.081 S 
HETATM    2  O   UNL     1     -19.863  -6.366  -7.100  1.00  0.00    -0.246 OA
ENDROOT
BRANCH   1   3
HETATM    3  S   UNL     1     -21.947  -6.356  -5.363  1.00  0.00    -0.062 SA
BRANCH   3   4
HETATM    4  C   UNL     1     -21.153  -7.037  -3.881  1.00  0.00     0.114 C 
BRANCH   4   5
HETATM    5  C   UNL     1     -21.380  -6.109  -2.724  1.00  0.00    -0.026 C 
HETATM    6  C   UNL     1     -22.240  -6.338  -1.722  1.00  0.00     0.007 C 
ENDBRANCH   4   5
ENDBRANCH   3   4
ENDBRANCH   1   3
BRANCH   1   7
HETATM    7  C   UNL     1     -21.318  -4.086  -7.193  1.00  0.00     0.147 C 
BRANCH   7   8
HETATM    8  C   UNL     1     -21.610  -4.634  -8.559  1.00  0.00    -0.024 C 
HETATM    9  C   UNL     1     -21.386  -3.977  -9.706  1.00  0.00     0.008 C 
ENDBRANCH   7   8
ENDBRANCH   1   7
TORSDOF 5
ENDMDL
MODEL 9
REMARK VINA RESULT:      -3.9     26.757     27.627
REMARK  5 active torsions:
REMARK  status: ('A' for Active; 'I' for Inactive)
REMARK    1  A    between atoms: C_2  and  C_3 
REMARK    2  A    between atoms: C_3  and  S_4 
REMARK    3  A    between atoms: S_4  and  S_5 
REMARK    4  A    between atoms: S_5  and  C_7 
REMARK    5  A    between atoms: C_7  and  C_8 
ROOT
HETATM    1  S   UNL     1     -16.312   9.443   4.591  1.00  0.00     0.081 S 
HETATM    2  O   UNL     1     -17.703   8.933   4.823  1.00  0.00    -0.246 OA
ENDROOT
BRANCH   1   3
HETATM    3  S   UNL     1     -16.253   9.341   2.566  1.00  0.00    -0.062 SA
BRANCH   3   4
HETATM    4  C   UNL     1     -14.861   8.206   2.311  1.00  0.00     0.114 C 
BRANCH   4   5
HETATM    5  C   UNL     1     -13.880   8.829   1.362  1.00  0.00    -0.026 C 
HETATM    6  C   UNL     1     -13.136   9.909   1.637  1.00  0.00     0.007 C 
ENDBRANCH   4   5
ENDBRANCH   3   4
ENDBRANCH   1   3
BRANCH   1   7
HETATM    7  C   UNL     1     -15.127   8.134   5.052  1.00  0.00     0.147 C 
BRANCH   7   8
HETATM    8  C   UNL     1     -14.177   8.626   6.103  1.00  0.00    -0.024 C 
HETATM    9  C   UNL     1     -12.975   9.162   5.851  1.00  0.00     0.008 C 
ENDBRANCH   7   8
ENDBRANCH   1   7
TORSDOF 5
ENDMDL
