MODEL 1
REMARK VINA RESULT:      -8.2      0.000      0.000
REMARK  19 active torsions:
REMARK  status: ('A' for Active; 'I' for Inactive)
REMARK    1  A    between atoms: C_2  and  C_3 
REMARK    2  A    between atoms: C_3  and  C_4 
REMARK    3  A    between atoms: C_4  and  C_5 
REMARK    4  A    between atoms: C_5  and  C_6 
REMARK    5  A    between atoms: C_7  and  C_8 
REMARK    6  A    between atoms: C_8  and  C_9 
REMARK    7  A    between atoms: C_10  and  C_11 
REMARK    8  A    between atoms: C_11  and  C_12 
REMARK    9  A    between atoms: C_13  and  C_14 
REMARK   10  A    between atoms: C_14  and  C_15 
REMARK   11  A    between atoms: C_16  and  C_17 
REMARK   12  A    between atoms: C_17  and  C_18 
REMARK   13  A    between atoms: C_18  and  C_19 
REMARK   14  A    between atoms: C_19  and  C_20 
REMARK       I    between atoms: C_20  and  N_22 
REMARK   15  A    between atoms: N_22  and  C_23 
REMARK   16  A    between atoms: C_23  and  C_24 
REMARK   17  A    between atoms: C_24  and  C_25 
REMARK   18  A    between atoms: C_28  and  O_29 
REMARK   19  A    between atoms: C_30  and  O_31 
ROOT
HETATM    1  C   UNL     1     -21.304  -6.297  -3.063  1.00  0.00     0.013 C 
ENDROOT
BRANCH   1   2
HETATM    2  C   UNL     1     -22.228  -6.252  -1.842  1.00  0.00     0.027 C 
BRANCH   2   3
HETATM    3  C   UNL     1     -22.226  -7.549  -1.087  1.00  0.00    -0.030 C 
HETATM    4  C   UNL     1     -21.706  -7.693   0.142  1.00  0.00    -0.027 C 
BRANCH   4   5
HETATM    5  C   UNL     1     -21.744  -8.980   0.908  1.00  0.00     0.053 C 
BRANCH   5   6
HETATM    6  C   UNL     1     -22.153 -10.120   0.025  1.00  0.00    -0.027 C 
HETATM    7  C   UNL     1     -23.427 -10.364  -0.324  1.00  0.00    -0.027 C 
BRANCH   7   8
HETATM    8  C   UNL     1     -23.851 -11.510  -1.190  1.00  0.00     0.053 C 
BRANCH   8   9
HETATM    9  C   UNL     1     -22.884 -11.713  -2.316  1.00  0.00    -0.027 C 
HETATM   10  C   UNL     1     -22.609 -10.775  -3.235  1.00  0.00    -0.027 C 
BRANCH  10  11
HETATM   11  C   UNL     1     -21.651 -10.982  -4.366  1.00  0.00     0.053 C 
BRANCH  11  12
HETATM   12  C   UNL     1     -20.251 -10.661  -3.938  1.00  0.00    -0.027 C 
HETATM   13  C   UNL     1     -19.976  -9.818  -2.933  1.00  0.00    -0.030 C 
BRANCH  13  14
HETATM   14  C   UNL     1     -18.590  -9.477  -2.475  1.00  0.00     0.027 C 
BRANCH  14  15
HETATM   15  C   UNL     1     -17.567 -10.382  -3.144  1.00  0.00     0.004 C 
BRANCH  15  16
HETATM   16  C   UNL     1     -16.303  -9.594  -3.467  1.00  0.00    -0.000 C 
BRANCH  16  17
HETATM   17  C   UNL     1     -15.841  -9.870  -4.891  1.00  0.00    -0.005 C 
HETATM   18  C   UNL     1     -17.028  -9.904  -5.837  1.00  0.00     0.005 C 
ENDBRANCH  16  17
ENDBRANCH  15  16
ENDBRANCH  14  15
ENDBRANCH  13  14
ENDBRANCH  11  12
ENDBRANCH  10  11
ENDBRANCH   8   9
ENDBRANCH   7   8
ENDBRANCH   5   6
ENDBRANCH   4   5
ENDBRANCH   2   3
ENDBRANCH   1   2
BRANCH   1  19
HETATM   19  C   UNL     1     -21.835  -7.221  -4.158  1.00  0.00     0.103 C 
BRANCH  19  20
HETATM   20  C   UNL     1     -21.190  -6.918  -5.490  1.00  0.00     0.217 C 
HETATM   21  O   UNL     1     -20.168  -7.485  -5.856  1.00  0.00    -0.274 OA
HETATM   22  N   UNL     1     -21.822  -5.945  -6.236  1.00  0.00    -0.361 N 
HETATM   23  H   UNL     1     -22.659  -5.501  -5.883  1.00  0.00     0.162 HD
BRANCH  22  24
HETATM   24  C   UNL     1     -21.288  -5.572  -7.535  1.00  0.00     0.127 C 
BRANCH  24  25
HETATM   25  C   UNL     1     -21.317  -4.065  -7.791  1.00  0.00     0.058 C 
BRANCH  25  26
HETATM   26  C   UNL     1     -22.200  -3.713  -8.964  1.00  0.00    -0.054 A 
HETATM   27  C   UNL     1     -21.648  -3.349 -10.205  1.00  0.00     0.010 A 
HETATM   28  C   UNL     1     -22.473  -3.002 -11.284  1.00  0.00     0.040 A 
HETATM   29  C   UNL     1     -23.854  -3.017 -11.116  1.00  0.00     0.098 A 
HETATM   30  C   UNL     1     -24.405  -3.375  -9.887  1.00  0.00     0.099 A 
HETATM   31  C   UNL     1     -23.594  -3.714  -8.815  1.00  0.00     0.046 A 
BRANCH  29  32
HETATM   32  O   UNL     1     -24.709  -2.684 -12.129  1.00  0.00    -0.358 OA
HETATM   33  H   UNL     1     -25.455  -3.309 -12.117  1.00  0.00     0.217 HD
ENDBRANCH  29  32
BRANCH  30  34
HETATM   34  O   UNL     1     -25.758  -3.395  -9.716  1.00  0.00    -0.358 OA
HETATM   35  H   UNL     1     -26.061  -4.193 -10.191  1.00  0.00     0.217 HD
ENDBRANCH  30  34
ENDBRANCH  25  26
ENDBRANCH  24  25
ENDBRANCH  22  24
ENDBRANCH  19  20
ENDBRANCH   1  19
TORSDOF 19
ENDMDL
MODEL 2
REMARK VINA RESULT:      -7.9      1.617      3.031
REMARK  19 active torsions:
REMARK  status: ('A' for Active; 'I' for Inactive)
REMARK    1  A    between atoms: C_2  and  C_3 
REMARK    2  A    between atoms: C_3  and  C_4 
REMARK    3  A    between atoms: C_4  and  C_5 
REMARK    4  A    between atoms: C_5  and  C_6 
REMARK    5  A    between atoms: C_7  and  C_8 
REMARK    6  A    between atoms: C_8  and  C_9 
REMARK    7  A    between atoms: C_10  and  C_11 
REMARK    8  A    between atoms: C_11  and  C_12 
REMARK    9  A    between atoms: C_13  and  C_14 
REMARK   10  A    between atoms: C_14  and  C_15 
REMARK   11  A    between atoms: C_16  and  C_17 
REMARK   12  A    between atoms: C_17  and  C_18 
REMARK   13  A    between atoms: C_18  and  C_19 
REMARK   14  A    between atoms: C_19  and  C_20 
REMARK       I    between atoms: C_20  and  N_22 
REMARK   15  A    between atoms: N_22  and  C_23 
REMARK   16  A    between atoms: C_23  and  C_24 
REMARK   17  A    between atoms: C_24  and  C_25 
REMARK   18  A    between atoms: C_28  and  O_29 
REMARK   19  A    between atoms: C_30  and  O_31 
ROOT
HETATM    1  C   UNL     1     -21.766  -7.543  -0.275  1.00  0.00     0.013 C 
ENDROOT
BRANCH   1   2
HETATM    2  C   UNL     1     -22.908  -7.896   0.683  1.00  0.00     0.027 C 
BRANCH   2   3
HETATM    3  C   UNL     1     -23.650  -9.125   0.245  1.00  0.00    -0.030 C 
HETATM    4  C   UNL     1     -23.053 -10.204  -0.284  1.00  0.00    -0.027 C 
BRANCH   4   5
HETATM    5  C   UNL     1     -23.794 -11.445  -0.680  1.00  0.00     0.053 C 
BRANCH   5   6
HETATM    6  C   UNL     1     -23.266 -11.997  -1.970  1.00  0.00    -0.027 C 
HETATM    7  C   UNL     1     -22.736 -11.232  -2.939  1.00  0.00    -0.027 C 
BRANCH   7   8
HETATM    8  C   UNL     1     -22.223 -11.769  -4.240  1.00  0.00     0.053 C 
BRANCH   8   9
HETATM    9  C   UNL     1     -20.783 -11.403  -4.436  1.00  0.00    -0.027 C 
HETATM   10  C   UNL     1     -20.379 -10.363  -5.180  1.00  0.00    -0.027 C 
BRANCH  10  11
HETATM   11  C   UNL     1     -18.940 -10.004  -5.386  1.00  0.00     0.053 C 
BRANCH  11  12
HETATM   12  C   UNL     1     -18.131 -10.350  -4.173  1.00  0.00    -0.027 C 
HETATM   13  C   UNL     1     -17.090  -9.613  -3.762  1.00  0.00    -0.030 C 
BRANCH  13  14
HETATM   14  C   UNL     1     -16.261  -9.926  -2.553  1.00  0.00     0.027 C 
BRANCH  14  15
HETATM   15  C   UNL     1     -16.267 -11.421  -2.272  1.00  0.00     0.004 C 
BRANCH  15  16
HETATM   16  C   UNL     1     -16.971 -11.703  -0.950  1.00  0.00    -0.000 C 
BRANCH  16  17
HETATM   17  C   UNL     1     -18.323 -12.362  -1.187  1.00  0.00    -0.005 C 
HETATM   18  C   UNL     1     -19.449 -11.389  -0.891  1.00  0.00     0.005 C 
ENDBRANCH  16  17
ENDBRANCH  15  16
ENDBRANCH  14  15
ENDBRANCH  13  14
ENDBRANCH  11  12
ENDBRANCH  10  11
ENDBRANCH   8   9
ENDBRANCH   7   8
ENDBRANCH   5   6
ENDBRANCH   4   5
ENDBRANCH   2   3
ENDBRANCH   1   2
BRANCH   1  19
HETATM   19  C   UNL     1     -22.221  -6.620  -1.406  1.00  0.00     0.103 C 
BRANCH  19  20
HETATM   20  C   UNL     1     -21.538  -6.971  -2.707  1.00  0.00     0.217 C 
HETATM   21  O   UNL     1     -20.897  -8.006  -2.841  1.00  0.00    -0.274 OA
HETATM   22  N   UNL     1     -21.671  -6.031  -3.707  1.00  0.00    -0.361 N 
HETATM   23  H   UNL     1     -22.205  -5.188  -3.541  1.00  0.00     0.162 HD
BRANCH  22  24
HETATM   24  C   UNL     1     -21.054  -6.264  -5.002  1.00  0.00     0.127 C 
BRANCH  24  25
HETATM   25  C   UNL     1     -20.395  -5.016  -5.591  1.00  0.00     0.058 C 
BRANCH  25  26
HETATM   26  C   UNL     1     -20.960  -4.673  -6.949  1.00  0.00    -0.054 A 
HETATM   27  C   UNL     1     -20.126  -4.561  -8.075  1.00  0.00     0.010 A 
HETATM   28  C   UNL     1     -20.653  -4.220  -9.328  1.00  0.00     0.040 A 
HETATM   29  C   UNL     1     -22.019  -3.989  -9.452  1.00  0.00     0.098 A 
HETATM   30  C   UNL     1     -22.849  -4.097  -8.337  1.00  0.00     0.099 A 
HETATM   31  C   UNL     1     -22.333  -4.428  -7.094  1.00  0.00     0.046 A 
BRANCH  29  32
HETATM   32  O   UNL     1     -22.590  -3.649 -10.645  1.00  0.00    -0.358 OA
HETATM   33  H   UNL     1     -21.879  -3.506 -11.295  1.00  0.00     0.217 HD
ENDBRANCH  29  32
BRANCH  30  34
HETATM   34  O   UNL     1     -24.190  -3.874  -8.450  1.00  0.00    -0.358 OA
HETATM   35  H   UNL     1     -24.611  -4.685  -8.102  1.00  0.00     0.217 HD
ENDBRANCH  30  34
ENDBRANCH  25  26
ENDBRANCH  24  25
ENDBRANCH  22  24
ENDBRANCH  19  20
ENDBRANCH   1  19
TORSDOF 19
ENDMDL
MODEL 3
REMARK VINA RESULT:      -7.9      1.825      2.853
REMARK  19 active torsions:
REMARK  status: ('A' for Active; 'I' for Inactive)
REMARK    1  A    between atoms: C_2  and  C_3 
REMARK    2  A    between atoms: C_3  and  C_4 
REMARK    3  A    between atoms: C_4  and  C_5 
REMARK    4  A    between atoms: C_5  and  C_6 
REMARK    5  A    between atoms: C_7  and  C_8 
REMARK    6  A    between atoms: C_8  and  C_9 
REMARK    7  A    between atoms: C_10  and  C_11 
REMARK    8  A    between atoms: C_11  and  C_12 
REMARK    9  A    between atoms: C_13  and  C_14 
REMARK   10  A    between atoms: C_14  and  C_15 
REMARK   11  A    between atoms: C_16  and  C_17 
REMARK   12  A    between atoms: C_17  and  C_18 
REMARK   13  A    between atoms: C_18  and  C_19 
REMARK   14  A    between atoms: C_19  and  C_20 
REMARK       I    between atoms: C_20  and  N_22 
REMARK   15  A    between atoms: N_22  and  C_23 
REMARK   16  A    between atoms: C_23  and  C_24 
REMARK   17  A    between atoms: C_24  and  C_25 
REMARK   18  A    between atoms: C_28  and  O_29 
REMARK   19  A    between atoms: C_30  and  O_31 
ROOT
HETATM    1  C   UNL     1     -21.729  -6.348  -3.059  1.00  0.00     0.013 C 
ENDROOT
BRANCH   1   2
HETATM    2  C   UNL     1     -22.336  -6.465  -1.657  1.00  0.00     0.027 C 
BRANCH   2   3
HETATM    3  C   UNL     1     -21.737  -7.600  -0.879  1.00  0.00    -0.030 C 
HETATM    4  C   UNL     1     -21.849  -7.728   0.452  1.00  0.00    -0.027 C 
BRANCH   4   5
HETATM    5  C   UNL     1     -21.285  -8.885   1.220  1.00  0.00     0.053 C 
BRANCH   5   6
HETATM    6  C   UNL     1     -20.874  -9.993   0.298  1.00  0.00    -0.027 C 
HETATM    7  C   UNL     1     -20.726 -11.268   0.694  1.00  0.00    -0.027 C 
BRANCH   7   8
HETATM    8  C   UNL     1     -20.298 -12.380  -0.212  1.00  0.00     0.053 C 
BRANCH   8   9
HETATM    9  C   UNL     1     -18.850 -12.247  -0.572  1.00  0.00    -0.027 C 
HETATM   10  C   UNL     1     -17.862 -12.209   0.336  1.00  0.00    -0.027 C 
BRANCH  10  11
HETATM   11  C   UNL     1     -16.416 -12.064  -0.022  1.00  0.00     0.053 C 
BRANCH  11  12
HETATM   12  C   UNL     1     -16.268 -11.546  -1.421  1.00  0.00    -0.027 C 
HETATM   13  C   UNL     1     -15.328 -11.996  -2.264  1.00  0.00    -0.030 C 
BRANCH  13  14
HETATM   14  C   UNL     1     -15.152 -11.504  -3.669  1.00  0.00     0.027 C 
BRANCH  14  15
HETATM   15  C   UNL     1     -16.495 -11.425  -4.381  1.00  0.00     0.004 C 
BRANCH  15  16
HETATM   16  C   UNL     1     -16.916  -9.969  -4.543  1.00  0.00    -0.000 C 
BRANCH  16  17
HETATM   17  C   UNL     1     -18.379  -9.783  -4.162  1.00  0.00    -0.005 C 
HETATM   18  C   UNL     1     -18.495  -9.215  -2.760  1.00  0.00     0.005 C 
ENDBRANCH  16  17
ENDBRANCH  15  16
ENDBRANCH  14  15
ENDBRANCH  13  14
ENDBRANCH  11  12
ENDBRANCH  10  11
ENDBRANCH   8   9
ENDBRANCH   7   8
ENDBRANCH   5   6
ENDBRANCH   4   5
ENDBRANCH   2   3
ENDBRANCH   1   2
BRANCH   1  19
HETATM   19  C   UNL     1     -21.591  -7.706  -3.747  1.00  0.00     0.103 C 
BRANCH  19  20
HETATM   20  C   UNL     1     -21.053  -7.555  -5.151  1.00  0.00     0.217 C 
HETATM   21  O   UNL     1     -21.223  -8.418  -6.004  1.00  0.00    -0.274 OA
HETATM   22  N   UNL     1     -20.342  -6.395  -5.382  1.00  0.00    -0.361 N 
HETATM   23  H   UNL     1     -20.224  -5.719  -4.639  1.00  0.00     0.162 HD
BRANCH  22  24
HETATM   24  C   UNL     1     -19.778  -6.145  -6.697  1.00  0.00     0.127 C 
BRANCH  24  25
HETATM   25  C   UNL     1     -19.721  -4.661  -7.058  1.00  0.00     0.058 C 
BRANCH  25  26
HETATM   26  C   UNL     1     -20.723  -4.306  -8.131  1.00  0.00    -0.054 A 
HETATM   27  C   UNL     1     -20.313  -4.042  -9.449  1.00  0.00     0.010 A 
HETATM   28  C   UNL     1     -21.245  -3.691 -10.435  1.00  0.00     0.040 A 
HETATM   29  C   UNL     1     -22.591  -3.602 -10.097  1.00  0.00     0.098 A 
HETATM   30  C   UNL     1     -23.002  -3.861  -8.789  1.00  0.00     0.099 A 
HETATM   31  C   UNL     1     -22.083  -4.203  -7.809  1.00  0.00     0.046 A 
BRANCH  29  32
HETATM   32  O   UNL     1     -23.546  -3.260 -11.012  1.00  0.00    -0.358 OA
HETATM   33  H   UNL     1     -23.100  -3.024 -11.846  1.00  0.00     0.217 HD
ENDBRANCH  29  32
BRANCH  30  34
HETATM   34  O   UNL     1     -24.321  -3.778  -8.451  1.00  0.00    -0.358 OA
HETATM   35  H   UNL     1     -24.803  -4.117  -9.230  1.00  0.00     0.217 HD
ENDBRANCH  30  34
ENDBRANCH  25  26
ENDBRANCH  24  25
ENDBRANCH  22  24
ENDBRANCH  19  20
ENDBRANCH   1  19
TORSDOF 19
ENDMDL
MODEL 4
REMARK VINA RESULT:      -7.6      2.030      4.124
REMARK  19 active torsions:
REMARK  status: ('A' for Active; 'I' for Inactive)
REMARK    1  A    between atoms: C_2  and  C_3 
REMARK    2  A    between atoms: C_3  and  C_4 
REMARK    3  A    between atoms: C_4  and  C_5 
REMARK    4  A    between atoms: C_5  and  C_6 
REMARK    5  A    between atoms: C_7  and  C_8 
REMARK    6  A    between atoms: C_8  and  C_9 
REMARK    7  A    between atoms: C_10  and  C_11 
REMARK    8  A    between atoms: C_11  and  C_12 
REMARK    9  A    between atoms: C_13  and  C_14 
REMARK   10  A    between atoms: C_14  and  C_15 
REMARK   11  A    between atoms: C_16  and  C_17 
REMARK   12  A    between atoms: C_17  and  C_18 
REMARK   13  A    between atoms: C_18  and  C_19 
REMARK   14  A    between atoms: C_19  and  C_20 
REMARK       I    between atoms: C_20  and  N_22 
REMARK   15  A    between atoms: N_22  and  C_23 
REMARK   16  A    between atoms: C_23  and  C_24 
REMARK   17  A    between atoms: C_24  and  C_25 
REMARK   18  A    between atoms: C_28  and  O_29 
REMARK   19  A    between atoms: C_30  and  O_31 
ROOT
HETATM    1  C   UNL     1     -22.184  -7.473  -0.206  1.00  0.00     0.013 C 
ENDROOT
BRANCH   1   2
HETATM    2  C   UNL     1     -21.784  -8.494   0.863  1.00  0.00     0.027 C 
BRANCH   2   3
HETATM    3  C   UNL     1     -21.551  -9.858   0.281  1.00  0.00    -0.030 C 
HETATM    4  C   UNL     1     -20.565 -10.677   0.679  1.00  0.00    -0.027 C 
BRANCH   4   5
HETATM    5  C   UNL     1     -20.363 -12.054   0.124  1.00  0.00     0.053 C 
BRANCH   5   6
HETATM    6  C   UNL     1     -18.936 -12.263  -0.288  1.00  0.00    -0.027 C 
HETATM    7  C   UNL     1     -17.890 -11.991   0.509  1.00  0.00    -0.027 C 
BRANCH   7   8
HETATM    8  C   UNL     1     -16.460 -12.177   0.103  1.00  0.00     0.053 C 
BRANCH   8   9
HETATM    9  C   UNL     1     -16.306 -12.042  -1.381  1.00  0.00    -0.027 C 
HETATM   10  C   UNL     1     -15.661 -11.022  -1.968  1.00  0.00    -0.027 C 
BRANCH  10  11
HETATM   11  C   UNL     1     -15.516 -10.880  -3.451  1.00  0.00     0.053 C 
BRANCH  11  12
HETATM   12  C   UNL     1     -16.828 -10.516  -4.077  1.00  0.00    -0.027 C 
HETATM   13  C   UNL     1     -17.587  -9.505  -3.632  1.00  0.00    -0.030 C 
BRANCH  13  14
HETATM   14  C   UNL     1     -18.902  -9.109  -4.235  1.00  0.00     0.027 C 
BRANCH  14  15
HETATM   15  C   UNL     1     -19.767 -10.335  -4.485  1.00  0.00     0.004 C 
BRANCH  15  16
HETATM   16  C   UNL     1     -20.701 -10.566  -3.303  1.00  0.00    -0.000 C 
BRANCH  16  17
HETATM   17  C   UNL     1     -22.122 -10.835  -3.781  1.00  0.00    -0.005 C 
HETATM   18  C   UNL     1     -23.029 -11.143  -2.605  1.00  0.00     0.005 C 
ENDBRANCH  16  17
ENDBRANCH  15  16
ENDBRANCH  14  15
ENDBRANCH  13  14
ENDBRANCH  11  12
ENDBRANCH  10  11
ENDBRANCH   8   9
ENDBRANCH   7   8
ENDBRANCH   5   6
ENDBRANCH   4   5
ENDBRANCH   2   3
ENDBRANCH   1   2
BRANCH   1  19
HETATM   19  C   UNL     1     -21.245  -7.499  -1.413  1.00  0.00     0.103 C 
BRANCH  19  20
HETATM   20  C   UNL     1     -21.745  -6.594  -2.514  1.00  0.00     0.217 C 
HETATM   21  O   UNL     1     -22.696  -5.840  -2.348  1.00  0.00    -0.274 OA
HETATM   22  N   UNL     1     -21.070  -6.705  -3.712  1.00  0.00    -0.361 N 
HETATM   23  H   UNL     1     -20.295  -7.350  -3.797  1.00  0.00     0.162 HD
BRANCH  22  24
HETATM   24  C   UNL     1     -21.465  -5.881  -4.841  1.00  0.00     0.127 C 
BRANCH  24  25
HETATM   25  C   UNL     1     -20.404  -5.811  -5.939  1.00  0.00     0.058 C 
BRANCH  25  26
HETATM   26  C   UNL     1     -20.948  -5.191  -7.205  1.00  0.00    -0.054 A 
HETATM   27  C   UNL     1     -20.134  -5.023  -8.339  1.00  0.00     0.010 A 
HETATM   28  C   UNL     1     -20.638  -4.427  -9.503  1.00  0.00     0.040 A 
HETATM   29  C   UNL     1     -21.961  -3.995  -9.528  1.00  0.00     0.098 A 
HETATM   30  C   UNL     1     -22.770  -4.158  -8.404  1.00  0.00     0.099 A 
HETATM   31  C   UNL     1     -22.275  -4.742  -7.249  1.00  0.00     0.046 A 
BRANCH  29  32
HETATM   32  O   UNL     1     -22.507  -3.403 -10.631  1.00  0.00    -0.358 OA
HETATM   33  H   UNL     1     -23.445  -3.662 -10.684  1.00  0.00     0.217 HD
ENDBRANCH  29  32
BRANCH  30  34
HETATM   34  O   UNL     1     -24.069  -3.740  -8.422  1.00  0.00    -0.358 OA
HETATM   35  H   UNL     1     -24.045  -2.830  -8.066  1.00  0.00     0.217 HD
ENDBRANCH  30  34
ENDBRANCH  25  26
ENDBRANCH  24  25
ENDBRANCH  22  24
ENDBRANCH  19  20
ENDBRANCH   1  19
TORSDOF 19
ENDMDL
MODEL 5
REMARK VINA RESULT:      -7.5      1.662      2.463
REMARK  19 active torsions:
REMARK  status: ('A' for Active; 'I' for Inactive)
REMARK    1  A    between atoms: C_2  and  C_3 
REMARK    2  A    between atoms: C_3  and  C_4 
REMARK    3  A    between atoms: C_4  and  C_5 
REMARK    4  A    between atoms: C_5  and  C_6 
REMARK    5  A    between atoms: C_7  and  C_8 
REMARK    6  A    between atoms: C_8  and  C_9 
REMARK    7  A    between atoms: C_10  and  C_11 
REMARK    8  A    between atoms: C_11  and  C_12 
REMARK    9  A    between atoms: C_13  and  C_14 
REMARK   10  A    between atoms: C_14  and  C_15 
REMARK   11  A    between atoms: C_16  and  C_17 
REMARK   12  A    between atoms: C_17  and  C_18 
REMARK   13  A    between atoms: C_18  and  C_19 
REMARK   14  A    between atoms: C_19  and  C_20 
REMARK       I    between atoms: C_20  and  N_22 
REMARK   15  A    between atoms: N_22  and  C_23 
REMARK   16  A    between atoms: C_23  and  C_24 
REMARK   17  A    between atoms: C_24  and  C_25 
REMARK   18  A    between atoms: C_28  and  O_29 
REMARK   19  A    between atoms: C_30  and  O_31 
ROOT
HETATM    1  C   UNL     1     -21.695  -7.614  -1.718  1.00  0.00     0.013 C 
ENDROOT
BRANCH   1   2
HETATM    2  C   UNL     1     -21.909  -7.619  -0.201  1.00  0.00     0.027 C 
BRANCH   2   3
HETATM    3  C   UNL     1     -22.871  -8.688   0.228  1.00  0.00    -0.030 C 
HETATM    4  C   UNL     1     -23.121  -9.793  -0.490  1.00  0.00    -0.027 C 
BRANCH   4   5
HETATM    5  C   UNL     1     -24.051 -10.878  -0.038  1.00  0.00     0.053 C 
BRANCH   5   6
HETATM    6  C   UNL     1     -23.784 -12.156  -0.774  1.00  0.00    -0.027 C 
HETATM    7  C   UNL     1     -23.033 -12.226  -1.886  1.00  0.00    -0.027 C 
BRANCH   7   8
HETATM    8  C   UNL     1     -22.775 -13.493  -2.641  1.00  0.00     0.053 C 
BRANCH   8   9
HETATM    9  C   UNL     1     -21.304 -13.721  -2.811  1.00  0.00    -0.027 C 
HETATM   10  C   UNL     1     -20.366 -12.889  -2.336  1.00  0.00    -0.027 C 
BRANCH  10  11
HETATM   11  C   UNL     1     -18.896 -13.111  -2.516  1.00  0.00     0.053 C 
BRANCH  11  12
HETATM   12  C   UNL     1     -18.143 -11.828  -2.334  1.00  0.00    -0.027 C 
HETATM   13  C   UNL     1     -16.809 -11.751  -2.437  1.00  0.00    -0.030 C 
BRANCH  13  14
HETATM   14  C   UNL     1     -16.023 -10.486  -2.266  1.00  0.00     0.027 C 
BRANCH  14  15
HETATM   15  C   UNL     1     -16.301  -9.523  -3.411  1.00  0.00     0.004 C 
BRANCH  15  16
HETATM   16  C   UNL     1     -15.786 -10.107  -4.722  1.00  0.00    -0.000 C 
BRANCH  16  17
HETATM   17  C   UNL     1     -16.878 -10.096  -5.784  1.00  0.00    -0.005 C 
HETATM   18  C   UNL     1     -18.165  -9.527  -5.217  1.00  0.00     0.005 C 
ENDBRANCH  16  17
ENDBRANCH  15  16
ENDBRANCH  14  15
ENDBRANCH  13  14
ENDBRANCH  11  12
ENDBRANCH  10  11
ENDBRANCH   8   9
ENDBRANCH   7   8
ENDBRANCH   5   6
ENDBRANCH   4   5
ENDBRANCH   2   3
ENDBRANCH   1   2
BRANCH   1  19
HETATM   19  C   UNL     1     -21.984  -6.247  -2.340  1.00  0.00     0.103 C 
BRANCH  19  20
HETATM   20  C   UNL     1     -21.848  -6.292  -3.844  1.00  0.00     0.217 C 
HETATM   21  O   UNL     1     -22.825  -6.358  -4.579  1.00  0.00    -0.274 OA
HETATM   22  N   UNL     1     -20.551  -6.278  -4.313  1.00  0.00    -0.361 N 
HETATM   23  H   UNL     1     -19.778  -6.231  -3.661  1.00  0.00     0.162 HD
BRANCH  22  24
HETATM   24  C   UNL     1     -20.300  -6.318  -5.743  1.00  0.00     0.127 C 
BRANCH  24  25
HETATM   25  C   UNL     1     -19.869  -4.969  -6.319  1.00  0.00     0.058 C 
BRANCH  25  26
HETATM   26  C   UNL     1     -20.683  -4.593  -7.534  1.00  0.00    -0.054 A 
HETATM   27  C   UNL     1     -20.078  -4.437  -8.794  1.00  0.00     0.010 A 
HETATM   28  C   UNL     1     -20.835  -4.065  -9.913  1.00  0.00     0.040 A 
HETATM   29  C   UNL     1     -22.202  -3.847  -9.768  1.00  0.00     0.098 A 
HETATM   30  C   UNL     1     -22.805  -3.999  -8.520  1.00  0.00     0.099 A 
HETATM   31  C   UNL     1     -22.060  -4.361  -7.409  1.00  0.00     0.046 A 
BRANCH  29  32
HETATM   32  O   UNL     1     -22.991  -3.479 -10.821  1.00  0.00    -0.358 OA
HETATM   33  H   UNL     1     -22.414  -3.176 -11.545  1.00  0.00     0.217 HD
ENDBRANCH  29  32
BRANCH  30  34
HETATM   34  O   UNL     1     -24.145  -3.789  -8.371  1.00  0.00    -0.358 OA
HETATM   35  H   UNL     1     -24.229  -3.276  -7.544  1.00  0.00     0.217 HD
ENDBRANCH  30  34
ENDBRANCH  25  26
ENDBRANCH  24  25
ENDBRANCH  22  24
ENDBRANCH  19  20
ENDBRANCH   1  19
TORSDOF 19
ENDMDL
MODEL 6
REMARK VINA RESULT:      -7.2      2.467      3.316
REMARK  19 active torsions:
REMARK  status: ('A' for Active; 'I' for Inactive)
REMARK    1  A    between atoms: C_2  and  C_3 
REMARK    2  A    between atoms: C_3  and  C_4 
REMARK    3  A    between atoms: C_4  and  C_5 
REMARK    4  A    between atoms: C_5  and  C_6 
REMARK    5  A    between atoms: C_7  and  C_8 
REMARK    6  A    between atoms: C_8  and  C_9 
REMARK    7  A    between atoms: C_10  and  C_11 
REMARK    8  A    between atoms: C_11  and  C_12 
REMARK    9  A    between atoms: C_13  and  C_14 
REMARK   10  A    between atoms: C_14  and  C_15 
REMARK   11  A    between atoms: C_16  and  C_17 
REMARK   12  A    between atoms: C_17  and  C_18 
REMARK   13  A    between atoms: C_18  and  C_19 
REMARK   14  A    between atoms: C_19  and  C_20 
REMARK       I    between atoms: C_20  and  N_22 
REMARK   15  A    between atoms: N_22  and  C_23 
REMARK   16  A    between atoms: C_23  and  C_24 
REMARK   17  A    between atoms: C_24  and  C_25 
REMARK   18  A    between atoms: C_28  and  O_29 
REMARK   19  A    between atoms: C_30  and  O_31 
ROOT
HETATM    1  C   UNL     1     -21.873  -6.877  -0.531  1.00  0.00     0.013 C 
ENDROOT
BRANCH   1   2
HETATM    2  C   UNL     1     -22.538  -8.013   0.253  1.00  0.00     0.027 C 
BRANCH   2   3
HETATM    3  C   UNL     1     -22.881  -9.178  -0.627  1.00  0.00    -0.030 C 
HETATM    4  C   UNL     1     -23.540 -10.265  -0.197  1.00  0.00    -0.027 C 
BRANCH   4   5
HETATM    5  C   UNL     1     -23.917 -11.408  -1.090  1.00  0.00     0.053 C 
BRANCH   5   6
HETATM    6  C   UNL     1     -23.770 -12.719  -0.377  1.00  0.00    -0.027 C 
HETATM    7  C   UNL     1     -23.470 -12.820   0.929  1.00  0.00    -0.027 C 
BRANCH   7   8
HETATM    8  C   UNL     1     -23.302 -14.122   1.648  1.00  0.00     0.053 C 
BRANCH   8   9
HETATM    9  C   UNL     1     -21.851 -14.458   1.811  1.00  0.00    -0.027 C 
HETATM   10  C   UNL     1     -20.996 -14.566   0.783  1.00  0.00    -0.027 C 
BRANCH  10  11
HETATM   11  C   UNL     1     -19.549 -14.912   0.944  1.00  0.00     0.053 C 
BRANCH  11  12
HETATM   12  C   UNL     1     -18.684 -13.890   0.271  1.00  0.00    -0.027 C 
HETATM   13  C   UNL     1     -19.100 -12.642   0.019  1.00  0.00    -0.030 C 
BRANCH  13  14
HETATM   14  C   UNL     1     -18.262 -11.593  -0.649  1.00  0.00     0.027 C 
BRANCH  14  15
HETATM   15  C   UNL     1     -17.544 -12.171  -1.858  1.00  0.00     0.004 C 
BRANCH  15  16
HETATM   16  C   UNL     1     -17.875 -11.356  -3.103  1.00  0.00    -0.000 C 
BRANCH  16  17
HETATM   17  C   UNL     1     -17.656  -9.870  -2.851  1.00  0.00    -0.005 C 
HETATM   18  C   UNL     1     -16.177  -9.533  -2.911  1.00  0.00     0.005 C 
ENDBRANCH  16  17
ENDBRANCH  15  16
ENDBRANCH  14  15
ENDBRANCH  13  14
ENDBRANCH  11  12
ENDBRANCH  10  11
ENDBRANCH   8   9
ENDBRANCH   7   8
ENDBRANCH   5   6
ENDBRANCH   4   5
ENDBRANCH   2   3
ENDBRANCH   1   2
BRANCH   1  19
HETATM   19  C   UNL     1     -22.490  -6.691  -1.917  1.00  0.00     0.103 C 
BRANCH  19  20
HETATM   20  C   UNL     1     -21.463  -6.899  -3.005  1.00  0.00     0.217 C 
HETATM   21  O   UNL     1     -20.561  -7.720  -2.893  1.00  0.00    -0.274 OA
HETATM   22  N   UNL     1     -21.606  -6.082  -4.107  1.00  0.00    -0.361 N 
HETATM   23  H   UNL     1     -22.365  -5.414  -4.146  1.00  0.00     0.162 HD
BRANCH  22  24
HETATM   24  C   UNL     1     -20.674  -6.196  -5.215  1.00  0.00     0.127 C 
BRANCH  24  25
HETATM   25  C   UNL     1     -20.219  -4.844  -5.763  1.00  0.00     0.058 C 
BRANCH  25  26
HETATM   26  C   UNL     1     -20.851  -4.540  -7.101  1.00  0.00    -0.054 A 
HETATM   27  C   UNL     1     -20.070  -4.427  -8.265  1.00  0.00     0.010 A 
HETATM   28  C   UNL     1     -20.660  -4.122  -9.499  1.00  0.00     0.040 A 
HETATM   29  C   UNL     1     -22.036  -3.928  -9.566  1.00  0.00     0.098 A 
HETATM   30  C   UNL     1     -22.813  -4.038  -8.413  1.00  0.00     0.099 A 
HETATM   31  C   UNL     1     -22.234  -4.333  -7.189  1.00  0.00     0.046 A 
BRANCH  29  32
HETATM   32  O   UNL     1     -22.667  -3.625 -10.739  1.00  0.00    -0.358 OA
HETATM   33  H   UNL     1     -23.518  -4.099 -10.760  1.00  0.00     0.217 HD
ENDBRANCH  29  32
BRANCH  30  34
HETATM   34  O   UNL     1     -24.164  -3.852  -8.472  1.00  0.00    -0.358 OA
HETATM   35  H   UNL     1     -24.547  -4.738  -8.318  1.00  0.00     0.217 HD
ENDBRANCH  30  34
ENDBRANCH  25  26
ENDBRANCH  24  25
ENDBRANCH  22  24
ENDBRANCH  19  20
ENDBRANCH   1  19
TORSDOF 19
ENDMDL
MODEL 7
REMARK VINA RESULT:      -7.1      2.290      4.486
REMARK  19 active torsions:
REMARK  status: ('A' for Active; 'I' for Inactive)
REMARK    1  A    between atoms: C_2  and  C_3 
REMARK    2  A    between atoms: C_3  and  C_4 
REMARK    3  A    between atoms: C_4  and  C_5 
REMARK    4  A    between atoms: C_5  and  C_6 
REMARK    5  A    between atoms: C_7  and  C_8 
REMARK    6  A    between atoms: C_8  and  C_9 
REMARK    7  A    between atoms: C_10  and  C_11 
REMARK    8  A    between atoms: C_11  and  C_12 
REMARK    9  A    between atoms: C_13  and  C_14 
REMARK   10  A    between atoms: C_14  and  C_15 
REMARK   11  A    between atoms: C_16  and  C_17 
REMARK   12  A    between atoms: C_17  and  C_18 
REMARK   13  A    between atoms: C_18  and  C_19 
REMARK   14  A    between atoms: C_19  and  C_20 
REMARK       I    between atoms: C_20  and  N_22 
REMARK   15  A    between atoms: N_22  and  C_23 
REMARK   16  A    between atoms: C_23  and  C_24 
REMARK   17  A    between atoms: C_24  and  C_25 
REMARK   18  A    between atoms: C_28  and  O_29 
REMARK   19  A    between atoms: C_30  and  O_31 
ROOT
HETATM    1  C   UNL     1     -21.515 -11.212  -3.789  1.00  0.00     0.013 C 
ENDROOT
BRANCH   1   2
HETATM    2  C   UNL     1     -20.513 -12.361  -3.938  1.00  0.00     0.027 C 
BRANCH   2   3
HETATM    3  C   UNL     1     -19.933 -12.778  -2.618  1.00  0.00    -0.030 C 
HETATM    4  C   UNL     1     -19.786 -14.058  -2.243  1.00  0.00    -0.027 C 
BRANCH   4   5
HETATM    5  C   UNL     1     -19.168 -14.469  -0.941  1.00  0.00     0.053 C 
BRANCH   5   6
HETATM    6  C   UNL     1     -20.015 -14.035   0.217  1.00  0.00    -0.027 C 
HETATM    7  C   UNL     1     -21.250 -14.509   0.448  1.00  0.00    -0.027 C 
BRANCH   7   8
HETATM    8  C   UNL     1     -22.113 -14.069   1.590  1.00  0.00     0.053 C 
BRANCH   8   9
HETATM    9  C   UNL     1     -23.017 -12.949   1.175  1.00  0.00    -0.027 C 
HETATM   10  C   UNL     1     -23.339 -12.692  -0.102  1.00  0.00    -0.027 C 
BRANCH  10  11
HETATM   11  C   UNL     1     -24.233 -11.566  -0.517  1.00  0.00     0.053 C 
BRANCH  11  12
HETATM   12  C   UNL     1     -23.434 -10.322  -0.767  1.00  0.00    -0.027 C 
HETATM   13  C   UNL     1     -23.459  -9.268   0.061  1.00  0.00    -0.030 C 
BRANCH  13  14
HETATM   14  C   UNL     1     -22.671  -8.010  -0.154  1.00  0.00     0.027 C 
BRANCH  14  15
HETATM   15  C   UNL     1     -21.196  -8.247   0.132  1.00  0.00     0.004 C 
BRANCH  15  16
HETATM   16  C   UNL     1     -21.017  -8.783   1.548  1.00  0.00    -0.000 C 
BRANCH  16  17
HETATM   17  C   UNL     1     -20.408 -10.178   1.525  1.00  0.00    -0.005 C 
HETATM   18  C   UNL     1     -20.044 -10.577   0.107  1.00  0.00     0.005 C 
ENDBRANCH  16  17
ENDBRANCH  15  16
ENDBRANCH  14  15
ENDBRANCH  13  14
ENDBRANCH  11  12
ENDBRANCH  10  11
ENDBRANCH   8   9
ENDBRANCH   7   8
ENDBRANCH   5   6
ENDBRANCH   4   5
ENDBRANCH   2   3
ENDBRANCH   1   2
BRANCH   1  19
HETATM   19  C   UNL     1     -20.825  -9.868  -3.554  1.00  0.00     0.103 C 
BRANCH  19  20
HETATM   20  C   UNL     1     -20.720  -9.076  -4.837  1.00  0.00     0.217 C 
HETATM   21  O   UNL     1     -21.026  -9.559  -5.920  1.00  0.00    -0.274 OA
HETATM   22  N   UNL     1     -20.234  -7.794  -4.692  1.00  0.00    -0.361 N 
HETATM   23  H   UNL     1     -19.989  -7.447  -3.774  1.00  0.00     0.162 HD
BRANCH  22  24
HETATM   24  C   UNL     1     -20.091  -6.941  -5.859  1.00  0.00     0.127 C 
BRANCH  24  25
HETATM   25  C   UNL     1     -20.818  -5.604  -5.724  1.00  0.00     0.058 C 
BRANCH  25  26
HETATM   26  C   UNL     1     -21.247  -5.060  -7.067  1.00  0.00    -0.054 A 
HETATM   27  C   UNL     1     -20.359  -5.031  -8.156  1.00  0.00     0.010 A 
HETATM   28  C   UNL     1     -20.756  -4.505  -9.393  1.00  0.00     0.040 A 
HETATM   29  C   UNL     1     -22.046  -4.005  -9.536  1.00  0.00     0.098 A 
HETATM   30  C   UNL     1     -22.929  -4.031  -8.458  1.00  0.00     0.099 A 
HETATM   31  C   UNL     1     -22.540  -4.545  -7.231  1.00  0.00     0.046 A 
BRANCH  29  32
HETATM   32  O   UNL     1     -22.489  -3.476 -10.716  1.00  0.00    -0.358 OA
HETATM   33  H   UNL     1     -22.148  -2.567 -10.791  1.00  0.00     0.217 HD
ENDBRANCH  29  32
BRANCH  30  34
HETATM   34  O   UNL     1     -24.197  -3.545  -8.592  1.00  0.00    -0.358 OA
HETATM   35  H   UNL     1     -24.775  -4.242  -8.224  1.00  0.00     0.217 HD
ENDBRANCH  30  34
ENDBRANCH  25  26
ENDBRANCH  24  25
ENDBRANCH  22  24
ENDBRANCH  19  20
ENDBRANCH   1  19
TORSDOF 19
ENDMDL
MODEL 8
REMARK VINA RESULT:      -7.1      1.720      5.563
REMARK  19 active torsions:
REMARK  status: ('A' for Active; 'I' for Inactive)
REMARK    1  A    between atoms: C_2  and  C_3 
REMARK    2  A    between atoms: C_3  and  C_4 
REMARK    3  A    between atoms: C_4  and  C_5 
REMARK    4  A    between atoms: C_5  and  C_6 
REMARK    5  A    between atoms: C_7  and  C_8 
REMARK    6  A    between atoms: C_8  and  C_9 
REMARK    7  A    between atoms: C_10  and  C_11 
REMARK    8  A    between atoms: C_11  and  C_12 
REMARK    9  A    between atoms: C_13  and  C_14 
REMARK   10  A    between atoms: C_14  and  C_15 
REMARK   11  A    between atoms: C_16  and  C_17 
REMARK   12  A    between atoms: C_17  and  C_18 
REMARK   13  A    between atoms: C_18  and  C_19 
REMARK   14  A    between atoms: C_19  and  C_20 
REMARK       I    between atoms: C_20  and  N_22 
REMARK   15  A    between atoms: N_22  and  C_23 
REMARK   16  A    between atoms: C_23  and  C_24 
REMARK   17  A    between atoms: C_24  and  C_25 
REMARK   18  A    between atoms: C_28  and  O_29 
REMARK   19  A    between atoms: C_30  and  O_31 
ROOT
HETATM    1  C   UNL     1     -20.650 -10.542  -5.086  1.00  0.00     0.013 C 
ENDROOT
BRANCH   1   2
HETATM    2  C   UNL     1     -20.661 -11.485  -6.294  1.00  0.00     0.027 C 
BRANCH   2   3
HETATM    3  C   UNL     1     -19.329 -12.141  -6.508  1.00  0.00    -0.030 C 
HETATM    4  C   UNL     1     -18.707 -12.190  -7.696  1.00  0.00    -0.027 C 
BRANCH   4   5
HETATM    5  C   UNL     1     -17.358 -12.808  -7.897  1.00  0.00     0.053 C 
BRANCH   5   6
HETATM    6  C   UNL     1     -16.514 -12.669  -6.665  1.00  0.00    -0.027 C 
HETATM    7  C   UNL     1     -15.889 -11.531  -6.322  1.00  0.00    -0.027 C 
BRANCH   7   8
HETATM    8  C   UNL     1     -15.029 -11.385  -5.105  1.00  0.00     0.053 C 
BRANCH   8   9
HETATM    9  C   UNL     1     -15.721 -10.568  -4.058  1.00  0.00    -0.027 C 
HETATM   10  C   UNL     1     -17.054 -10.533  -3.907  1.00  0.00    -0.027 C 
BRANCH  10  11
HETATM   11  C   UNL     1     -17.747  -9.709  -2.868  1.00  0.00     0.053 C 
BRANCH  11  12
HETATM   12  C   UNL     1     -18.863 -10.485  -2.236  1.00  0.00    -0.027 C 
HETATM   13  C   UNL     1     -19.807  -9.909  -1.480  1.00  0.00    -0.030 C 
BRANCH  13  14
HETATM   14  C   UNL     1     -20.939 -10.652  -0.836  1.00  0.00     0.027 C 
BRANCH  14  15
HETATM   15  C   UNL     1     -21.484  -9.873   0.351  1.00  0.00     0.004 C 
BRANCH  15  16
HETATM   16  C   UNL     1     -22.806  -9.211  -0.020  1.00  0.00    -0.000 C 
BRANCH  16  17
HETATM   17  C   UNL     1     -22.750  -7.710   0.233  1.00  0.00    -0.005 C 
HETATM   18  C   UNL     1     -22.299  -6.977  -1.017  1.00  0.00     0.005 C 
ENDBRANCH  16  17
ENDBRANCH  15  16
ENDBRANCH  14  15
ENDBRANCH  13  14
ENDBRANCH  11  12
ENDBRANCH  10  11
ENDBRANCH   8   9
ENDBRANCH   7   8
ENDBRANCH   5   6
ENDBRANCH   4   5
ENDBRANCH   2   3
ENDBRANCH   1   2
BRANCH   1  19
HETATM   19  C   UNL     1     -21.565  -9.334  -5.285  1.00  0.00     0.103 C 
BRANCH  19  20
HETATM   20  C   UNL     1     -20.794  -8.039  -5.169  1.00  0.00     0.217 C 
HETATM   21  O   UNL     1     -20.283  -7.685  -4.114  1.00  0.00    -0.274 OA
HETATM   22  N   UNL     1     -20.737  -7.289  -6.325  1.00  0.00    -0.361 N 
HETATM   23  H   UNL     1     -21.184  -7.625  -7.168  1.00  0.00     0.162 HD
BRANCH  22  24
HETATM   24  C   UNL     1     -20.022  -6.025  -6.330  1.00  0.00     0.127 C 
BRANCH  24  25
HETATM   25  C   UNL     1     -20.942  -4.809  -6.230  1.00  0.00     0.058 C 
BRANCH  25  26
HETATM   26  C   UNL     1     -21.488  -4.408  -7.580  1.00  0.00    -0.054 A 
HETATM   27  C   UNL     1     -20.649  -4.311  -8.704  1.00  0.00     0.010 A 
HETATM   28  C   UNL     1     -21.158  -3.916  -9.949  1.00  0.00     0.040 A 
HETATM   29  C   UNL     1     -22.512  -3.615 -10.066  1.00  0.00     0.098 A 
HETATM   30  C   UNL     1     -23.347  -3.708  -8.953  1.00  0.00     0.099 A 
HETATM   31  C   UNL     1     -22.847  -4.093  -7.718  1.00  0.00     0.046 A 
BRANCH  29  32
HETATM   32  O   UNL     1     -23.065  -3.221 -11.251  1.00  0.00    -0.358 OA
HETATM   33  H   UNL     1     -23.158  -2.252 -11.238  1.00  0.00     0.217 HD
ENDBRANCH  29  32
BRANCH  30  34
HETATM   34  O   UNL     1     -24.675  -3.418  -9.061  1.00  0.00    -0.358 OA
HETATM   35  H   UNL     1     -24.810  -2.637  -8.488  1.00  0.00     0.217 HD
ENDBRANCH  30  34
ENDBRANCH  25  26
ENDBRANCH  24  25
ENDBRANCH  22  24
ENDBRANCH  19  20
ENDBRANCH   1  19
TORSDOF 19
ENDMDL
MODEL 9
REMARK VINA RESULT:      -7.0      3.483      7.905
REMARK  19 active torsions:
REMARK  status: ('A' for Active; 'I' for Inactive)
REMARK    1  A    between atoms: C_2  and  C_3 
REMARK    2  A    between atoms: C_3  and  C_4 
REMARK    3  A    between atoms: C_4  and  C_5 
REMARK    4  A    between atoms: C_5  and  C_6 
REMARK    5  A    between atoms: C_7  and  C_8 
REMARK    6  A    between atoms: C_8  and  C_9 
REMARK    7  A    between atoms: C_10  and  C_11 
REMARK    8  A    between atoms: C_11  and  C_12 
REMARK    9  A    between atoms: C_13  and  C_14 
REMARK   10  A    between atoms: C_14  and  C_15 
REMARK   11  A    between atoms: C_16  and  C_17 
REMARK   12  A    between atoms: C_17  and  C_18 
REMARK   13  A    between atoms: C_18  and  C_19 
REMARK   14  A    between atoms: C_19  and  C_20 
REMARK       I    between atoms: C_20  and  N_22 
REMARK   15  A    between atoms: N_22  and  C_23 
REMARK   16  A    between atoms: C_23  and  C_24 
REMARK   17  A    between atoms: C_24  and  C_25 
REMARK   18  A    between atoms: C_28  and  O_29 
REMARK   19  A    between atoms: C_30  and  O_31 
ROOT
HETATM    1  C   UNL     1     -22.892 -11.726  -1.937  1.00  0.00     0.013 C 
ENDROOT
BRANCH   1   2
HETATM    2  C   UNL     1     -23.825 -11.728  -0.722  1.00  0.00     0.027 C 
BRANCH   2   3
HETATM    3  C   UNL     1     -23.872 -10.389  -0.047  1.00  0.00    -0.030 C 
HETATM    4  C   UNL     1     -22.870  -9.497  -0.095  1.00  0.00    -0.027 C 
BRANCH   4   5
HETATM    5  C   UNL     1     -22.939  -8.145   0.546  1.00  0.00     0.053 C 
BRANCH   5   6
HETATM    6  C   UNL     1     -22.593  -7.066  -0.437  1.00  0.00    -0.027 C 
HETATM    7  C   UNL     1     -21.977  -7.302  -1.607  1.00  0.00    -0.027 C 
BRANCH   7   8
HETATM    8  C   UNL     1     -21.609  -6.233  -2.588  1.00  0.00     0.053 C 
BRANCH   8   9
HETATM    9  C   UNL     1     -21.417  -6.809  -3.957  1.00  0.00    -0.027 C 
HETATM   10  C   UNL     1     -20.922  -6.111  -4.991  1.00  0.00    -0.027 C 
BRANCH  10  11
HETATM   11  C   UNL     1     -20.740  -6.683  -6.362  1.00  0.00     0.053 C 
BRANCH  11  12
HETATM   12  C   UNL     1     -20.932  -5.624  -7.405  1.00  0.00    -0.027 C 
HETATM   13  C   UNL     1     -21.894  -4.694  -7.325  1.00  0.00    -0.030 C 
BRANCH  13  14
HETATM   14  C   UNL     1     -22.113  -3.618  -8.346  1.00  0.00     0.027 C 
BRANCH  14  15
HETATM   15  C   UNL     1     -22.436  -4.226  -9.703  1.00  0.00     0.004 C 
BRANCH  15  16
HETATM   16  C   UNL     1     -23.945  -4.273  -9.910  1.00  0.00    -0.000 C 
BRANCH  16  17
HETATM   17  C   UNL     1     -24.375  -3.287 -10.987  1.00  0.00    -0.005 C 
HETATM   18  C   UNL     1     -23.161  -2.656 -11.645  1.00  0.00     0.005 C 
ENDBRANCH  16  17
ENDBRANCH  15  16
ENDBRANCH  14  15
ENDBRANCH  13  14
ENDBRANCH  11  12
ENDBRANCH  10  11
ENDBRANCH   8   9
ENDBRANCH   7   8
ENDBRANCH   5   6
ENDBRANCH   4   5
ENDBRANCH   2   3
ENDBRANCH   1   2
BRANCH   1  19
HETATM   19  C   UNL     1     -21.708 -12.677  -1.761  1.00  0.00     0.103 C 
BRANCH  19  20
HETATM   20  C   UNL     1     -20.394 -11.945  -1.898  1.00  0.00     0.217 C 
HETATM   21  O   UNL     1     -19.338 -12.440  -1.524  1.00  0.00    -0.274 OA
HETATM   22  N   UNL     1     -20.484 -10.682  -2.446  1.00  0.00    -0.361 N 
HETATM   23  H   UNL     1     -21.383 -10.318  -2.731  1.00  0.00     0.162 HD
BRANCH  22  24
HETATM   24  C   UNL     1     -19.281  -9.887  -2.624  1.00  0.00     0.127 C 
BRANCH  24  25
HETATM   25  C   UNL     1     -19.137  -9.318  -4.035  1.00  0.00     0.058 C 
BRANCH  25  26
HETATM   26  C   UNL     1     -19.580 -10.308  -5.086  1.00  0.00    -0.054 A 
HETATM   27  C   UNL     1     -20.934 -10.431  -5.444  1.00  0.00     0.010 A 
HETATM   28  C   UNL     1     -21.342 -11.367  -6.404  1.00  0.00     0.040 A 
HETATM   29  C   UNL     1     -20.389 -12.184  -7.004  1.00  0.00     0.098 A 
HETATM   30  C   UNL     1     -19.046 -12.066  -6.651  1.00  0.00     0.099 A 
HETATM   31  C   UNL     1     -18.638 -11.146  -5.699  1.00  0.00     0.046 A 
BRANCH  29  32
HETATM   32  O   UNL     1     -20.726 -13.118  -7.943  1.00  0.00    -0.358 OA
HETATM   33  H   UNL     1     -21.190 -13.848  -7.496  1.00  0.00     0.217 HD
ENDBRANCH  29  32
BRANCH  30  34
HETATM   34  O   UNL     1     -18.105 -12.862  -7.238  1.00  0.00    -0.358 OA
HETATM   35  H   UNL     1     -18.205 -13.731  -6.804  1.00  0.00     0.217 HD
ENDBRANCH  30  34
ENDBRANCH  25  26
ENDBRANCH  24  25
ENDBRANCH  22  24
ENDBRANCH  19  20
ENDBRANCH   1  19
TORSDOF 19
ENDMDL
