MODEL 1
REMARK VINA RESULT:      -9.3      0.000      0.000
REMARK  6 active torsions:
REMARK  status: ('A' for Active; 'I' for Inactive)
REMARK    1  A    between atoms: C_2  and  O_4 
REMARK    2  A    between atoms: C_2  and  C_5 
REMARK    3  A    between atoms: C_10  and  C_11 
REMARK    4  A    between atoms: C_17  and  C_18 
REMARK    5  A    between atoms: C_19  and  C_20 
REMARK    6  A    between atoms: C_23  and  C_24 
ROOT
HETATM    1  C   UNL     1     -21.607  -7.885  -3.268  1.00  0.00    -0.023 C 
HETATM    2  C   UNL     1     -20.466  -8.470  -3.876  1.00  0.00     0.014 C 
HETATM    3  C   UNL     1     -19.840  -7.940  -5.001  1.00  0.00     0.033 C 
HETATM    4  C   UNL     1     -20.470  -6.896  -5.661  1.00  0.00     0.060 A 
HETATM    5  N   UNL     1     -20.061  -6.264  -6.788  1.00  0.00    -0.341 N 
ATOM      6  HN  UNL     1     -19.184  -6.414  -7.288  1.00  0.00     0.167 HD
HETATM    7  C   UNL     1     -21.013  -5.420  -7.112  1.00  0.00     0.106 A 
HETATM    8  N   UNL     1     -22.026  -5.463  -6.171  1.00  0.00    -0.341 N 
HETATM    9  C   UNL     1     -21.666  -6.382  -5.192  1.00  0.00     0.061 A 
HETATM   10  C   UNL     1     -22.228  -6.813  -3.966  1.00  0.00     0.044 C 
HETATM   11  H   UNL     1     -22.894  -4.953  -6.205  1.00  0.00     0.167 HD
ENDROOT
BRANCH   7  12
HETATM   12  C   UNL     1     -21.013  -4.561  -8.247  1.00  0.00     0.049 C 
HETATM   13  C   UNL     1     -22.171  -4.543  -8.946  1.00  0.00     0.015 C 
BRANCH  13  14
HETATM   14  C   UNL     1     -22.540  -3.841 -10.173  1.00  0.00    -0.036 A 
HETATM   15  C   UNL     1     -23.887  -3.920 -10.566  1.00  0.00     0.012 A 
HETATM   16  C   UNL     1     -24.347  -3.267 -11.710  1.00  0.00     0.017 A 
HETATM   17  C   UNL     1     -23.469  -2.501 -12.483  1.00  0.00     0.048 A 
HETATM   18  C   UNL     1     -22.136  -2.368 -12.054  1.00  0.00     0.017 A 
HETATM   19  C   UNL     1     -21.674  -3.030 -10.906  1.00  0.00     0.012 A 
BRANCH  17  20
HETATM   20  C   UNL     1     -23.936  -1.841 -13.756  1.00  0.00     0.417 C 
HETATM   21  F   UNL     1     -23.816  -2.634 -14.859  1.00  0.00    -0.166 F 
HETATM   22  F   UNL     1     -25.243  -1.464 -13.708  1.00  0.00    -0.166 F 
HETATM   23  F   UNL     1     -23.229  -0.711 -14.037  1.00  0.00    -0.166 F 
ENDBRANCH  17  20
ENDBRANCH  13  14
ENDBRANCH   7  12
BRANCH   1  24
HETATM   24  C   UNL     1     -21.947  -8.322  -1.859  1.00  0.00    -0.017 A 
HETATM   25  C   UNL     1     -22.391  -9.587  -1.384  1.00  0.00    -0.014 A 
HETATM   26  C   UNL     1     -22.830  -9.670  -0.021  1.00  0.00     0.011 A 
HETATM   27  C   UNL     1     -22.763  -8.611   0.882  1.00  0.00     0.001 A 
HETATM   28  C   UNL     1     -22.234  -7.417   0.462  1.00  0.00     0.001 A 
HETATM   29  C   UNL     1     -21.864  -7.281  -0.873  1.00  0.00     0.013 A 
BRANCH  25  30
HETATM   30  C   UNL     1     -22.455 -10.919  -2.157  1.00  0.00     0.078 C 
HETATM   31  C   UNL     1     -23.421 -11.882  -1.447  1.00  0.00     0.051 C 
HETATM   32  C   UNL     1     -21.060 -11.569  -2.285  1.00  0.00     0.051 C 
BRANCH  30  33
HETATM   33  O   UNL     1     -22.894 -10.769  -3.504  1.00  0.00    -0.386 OA
HETATM   34  H   UNL     1     -23.562 -10.066  -3.528  1.00  0.00     0.211 HD
ENDBRANCH  30  33
ENDBRANCH  25  30
ENDBRANCH   1  24
TORSDOF 6
ENDMDL
MODEL 2
REMARK VINA RESULT:      -8.9     17.653     19.683
REMARK  6 active torsions:
REMARK  status: ('A' for Active; 'I' for Inactive)
REMARK    1  A    between atoms: C_2  and  O_4 
REMARK    2  A    between atoms: C_2  and  C_5 
REMARK    3  A    between atoms: C_10  and  C_11 
REMARK    4  A    between atoms: C_17  and  C_18 
REMARK    5  A    between atoms: C_19  and  C_20 
REMARK    6  A    between atoms: C_23  and  C_24 
ROOT
HETATM    1  C   UNL     1     -24.759   9.240  -0.234  1.00  0.00    -0.023 C 
HETATM    2  C   UNL     1     -24.045  10.299  -0.853  1.00  0.00     0.014 C 
HETATM    3  C   UNL     1     -22.769  10.694  -0.462  1.00  0.00     0.033 C 
HETATM    4  C   UNL     1     -22.248  10.146   0.701  1.00  0.00     0.060 A 
HETATM    5  N   UNL     1     -21.054  10.418   1.280  1.00  0.00    -0.341 N 
ATOM      6  HN  UNL     1     -20.318  11.019   0.909  1.00  0.00     0.167 HD
HETATM    7  C   UNL     1     -21.027   9.755   2.414  1.00  0.00     0.106 A 
HETATM    8  N   UNL     1     -22.184   9.011   2.556  1.00  0.00    -0.341 N 
HETATM    9  C   UNL     1     -22.969   9.214   1.427  1.00  0.00     0.061 A 
HETATM   10  C   UNL     1     -24.199   8.696   0.954  1.00  0.00     0.044 C 
HETATM   11  H   UNL     1     -22.440   8.452   3.354  1.00  0.00     0.167 HD
ENDROOT
BRANCH   7  12
HETATM   12  C   UNL     1     -19.964   9.769   3.361  1.00  0.00     0.049 C 
HETATM   13  C   UNL     1     -18.731   9.604   2.833  1.00  0.00     0.015 C 
BRANCH  13  14
HETATM   14  C   UNL     1     -17.419   9.513   3.470  1.00  0.00    -0.036 A 
HETATM   15  C   UNL     1     -17.403   9.232   4.847  1.00  0.00     0.012 A 
HETATM   16  C   UNL     1     -16.203   9.102   5.546  1.00  0.00     0.017 A 
HETATM   17  C   UNL     1     -14.982   9.234   4.877  1.00  0.00     0.048 A 
HETATM   18  C   UNL     1     -14.997   9.450   3.486  1.00  0.00     0.017 A 
HETATM   19  C   UNL     1     -16.206   9.585   2.787  1.00  0.00     0.012 A 
BRANCH  17  20
HETATM   20  C   UNL     1     -13.676   9.159   5.629  1.00  0.00     0.417 C 
HETATM   21  F   UNL     1     -12.578   9.212   4.822  1.00  0.00    -0.166 F 
HETATM   22  F   UNL     1     -13.526  10.167   6.531  1.00  0.00    -0.166 F 
HETATM   23  F   UNL     1     -13.558   8.000   6.336  1.00  0.00    -0.166 F 
ENDBRANCH  17  20
ENDBRANCH  13  14
ENDBRANCH   7  12
BRANCH   1  24
HETATM   24  C   UNL     1     -25.941   8.665  -0.986  1.00  0.00    -0.017 A 
HETATM   25  C   UNL     1     -25.964   7.811  -2.123  1.00  0.00    -0.014 A 
HETATM   26  C   UNL     1     -27.231   7.575  -2.753  1.00  0.00     0.011 A 
HETATM   27  C   UNL     1     -28.443   8.062  -2.267  1.00  0.00     0.001 A 
HETATM   28  C   UNL     1     -28.442   8.797  -1.108  1.00  0.00     0.001 A 
HETATM   29  C   UNL     1     -27.223   9.102  -0.510  1.00  0.00     0.013 A 
BRANCH  25  30
HETATM   30  C   UNL     1     -24.779   7.075  -2.778  1.00  0.00     0.078 C 
HETATM   31  C   UNL     1     -25.292   6.193  -3.929  1.00  0.00     0.051 C 
HETATM   32  C   UNL     1     -24.009   6.212  -1.754  1.00  0.00     0.051 C 
BRANCH  30  33
HETATM   33  O   UNL     1     -23.790   7.955  -3.305  1.00  0.00    -0.386 OA
HETATM   34  H   UNL     1     -24.189   8.834  -3.406  1.00  0.00     0.211 HD
ENDBRANCH  30  33
ENDBRANCH  25  30
ENDBRANCH   1  24
TORSDOF 6
ENDMDL
MODEL 3
REMARK VINA RESULT:      -8.9      3.889      6.467
REMARK  6 active torsions:
REMARK  status: ('A' for Active; 'I' for Inactive)
REMARK    1  A    between atoms: C_2  and  O_4 
REMARK    2  A    between atoms: C_2  and  C_5 
REMARK    3  A    between atoms: C_10  and  C_11 
REMARK    4  A    between atoms: C_17  and  C_18 
REMARK    5  A    between atoms: C_19  and  C_20 
REMARK    6  A    between atoms: C_23  and  C_24 
ROOT
HETATM    1  C   UNL     1     -22.363 -12.776   0.331  1.00  0.00    -0.023 C 
HETATM    2  C   UNL     1     -21.206 -12.300   1.001  1.00  0.00     0.014 C 
HETATM    3  C   UNL     1     -20.654 -11.042   0.775  1.00  0.00     0.033 C 
HETATM    4  C   UNL     1     -21.152 -10.296  -0.283  1.00  0.00     0.060 A 
HETATM    5  N   UNL     1     -20.736  -9.076  -0.702  1.00  0.00    -0.341 N 
ATOM      6  HN  UNL     1     -20.035  -8.484  -0.256  1.00  0.00     0.167 HD
HETATM    7  C   UNL     1     -21.412  -8.804  -1.794  1.00  0.00     0.106 A 
HETATM    8  N   UNL     1     -22.306  -9.824  -2.066  1.00  0.00    -0.341 N 
HETATM    9  C   UNL     1     -22.186 -10.781  -1.065  1.00  0.00     0.061 A 
HETATM   10  C   UNL     1     -22.853 -11.988  -0.746  1.00  0.00     0.044 C 
HETATM   11  H   UNL     1     -22.910  -9.889  -2.869  1.00  0.00     0.167 HD
ENDROOT
BRANCH   7  12
HETATM   12  C   UNL     1     -21.278  -7.628  -2.585  1.00  0.00     0.049 C 
HETATM   13  C   UNL     1     -21.353  -7.829  -3.920  1.00  0.00     0.015 C 
BRANCH  13  14
HETATM   14  C   UNL     1     -21.216  -6.901  -5.039  1.00  0.00    -0.036 A 
HETATM   15  C   UNL     1     -20.009  -6.950  -5.758  1.00  0.00     0.012 A 
HETATM   16  C   UNL     1     -19.786  -6.121  -6.857  1.00  0.00     0.017 A 
HETATM   17  C   UNL     1     -20.778  -5.230  -7.278  1.00  0.00     0.048 A 
HETATM   18  C   UNL     1     -22.011  -5.227  -6.600  1.00  0.00     0.017 A 
HETATM   19  C   UNL     1     -22.230  -6.057  -5.491  1.00  0.00     0.012 A 
BRANCH  17  20
HETATM   20  C   UNL     1     -20.530  -4.284  -8.426  1.00  0.00     0.417 C 
HETATM   21  F   UNL     1     -19.481  -3.437  -8.219  1.00  0.00    -0.166 F 
HETATM   22  F   UNL     1     -20.264  -4.928  -9.596  1.00  0.00    -0.166 F 
HETATM   23  F   UNL     1     -21.604  -3.483  -8.673  1.00  0.00    -0.166 F 
ENDBRANCH  17  20
ENDBRANCH  13  14
ENDBRANCH   7  12
BRANCH   1  24
HETATM   24  C   UNL     1     -23.075 -13.970   0.934  1.00  0.00    -0.017 A 
HETATM   25  C   UNL     1     -23.513 -15.172   0.314  1.00  0.00    -0.014 A 
HETATM   26  C   UNL     1     -24.340 -16.055   1.085  1.00  0.00     0.011 A 
HETATM   27  C   UNL     1     -24.663 -15.846   2.424  1.00  0.00     0.001 A 
HETATM   28  C   UNL     1     -24.154 -14.742   3.062  1.00  0.00     0.001 A 
HETATM   29  C   UNL     1     -23.406 -13.829   2.324  1.00  0.00     0.013 A 
BRANCH  25  30
HETATM   30  C   UNL     1     -23.200 -15.672  -1.109  1.00  0.00     0.078 C 
HETATM   31  C   UNL     1     -21.703 -15.473  -1.408  1.00  0.00     0.051 C 
HETATM   32  C   UNL     1     -24.051 -14.940  -2.170  1.00  0.00     0.051 C 
BRANCH  30  33
HETATM   33  O   UNL     1     -23.508 -17.049  -1.305  1.00  0.00    -0.386 OA
HETATM   34  H   UNL     1     -23.413 -17.504  -0.453  1.00  0.00     0.211 HD
ENDBRANCH  30  33
ENDBRANCH  25  30
ENDBRANCH   1  24
TORSDOF 6
ENDMDL
MODEL 4
REMARK VINA RESULT:      -8.8      1.733      3.244
REMARK  6 active torsions:
REMARK  status: ('A' for Active; 'I' for Inactive)
REMARK    1  A    between atoms: C_2  and  O_4 
REMARK    2  A    between atoms: C_2  and  C_5 
REMARK    3  A    between atoms: C_10  and  C_11 
REMARK    4  A    between atoms: C_17  and  C_18 
REMARK    5  A    between atoms: C_19  and  C_20 
REMARK    6  A    between atoms: C_23  and  C_24 
ROOT
HETATM    1  C   UNL     1     -20.670  -9.552  -1.760  1.00  0.00    -0.023 C 
HETATM    2  C   UNL     1     -21.281  -8.506  -1.021  1.00  0.00     0.014 C 
HETATM    3  C   UNL     1     -21.689  -7.303  -1.589  1.00  0.00     0.033 C 
HETATM    4  C   UNL     1     -21.317  -7.046  -2.900  1.00  0.00     0.060 A 
HETATM    5  N   UNL     1     -21.570  -5.932  -3.629  1.00  0.00    -0.341 N 
ATOM      6  HN  UNL     1     -22.139  -5.134  -3.344  1.00  0.00     0.167 HD
HETATM    7  C   UNL     1     -20.940  -6.079  -4.771  1.00  0.00     0.106 A 
HETATM    8  N   UNL     1     -20.313  -7.311  -4.813  1.00  0.00    -0.341 N 
HETATM    9  C   UNL     1     -20.589  -7.975  -3.623  1.00  0.00     0.061 A 
HETATM   10  C   UNL     1     -20.304  -9.261  -3.103  1.00  0.00     0.044 C 
HETATM   11  H   UNL     1     -19.723  -7.655  -5.552  1.00  0.00     0.167 HD
ENDROOT
BRANCH   7  12
HETATM   12  C   UNL     1     -20.913  -5.132  -5.834  1.00  0.00     0.049 C 
HETATM   13  C   UNL     1     -21.885  -5.289  -6.760  1.00  0.00     0.015 C 
BRANCH  13  14
HETATM   14  C   UNL     1     -22.156  -4.563  -7.998  1.00  0.00    -0.036 A 
HETATM   15  C   UNL     1     -21.060  -4.322  -8.843  1.00  0.00     0.012 A 
HETATM   16  C   UNL     1     -21.214  -3.657 -10.060  1.00  0.00     0.017 A 
HETATM   17  C   UNL     1     -22.481  -3.231 -10.471  1.00  0.00     0.048 A 
HETATM   18  C   UNL     1     -23.589  -3.530  -9.658  1.00  0.00     0.017 A 
HETATM   19  C   UNL     1     -23.430  -4.194  -8.432  1.00  0.00     0.012 A 
BRANCH  17  20
HETATM   20  C   UNL     1     -22.656  -2.456 -11.754  1.00  0.00     0.417 C 
HETATM   21  F   UNL     1     -22.465  -1.113 -11.611  1.00  0.00    -0.166 F 
HETATM   22  F   UNL     1     -21.799  -2.853 -12.734  1.00  0.00    -0.166 F 
HETATM   23  F   UNL     1     -23.909  -2.596 -12.270  1.00  0.00    -0.166 F 
ENDBRANCH  17  20
ENDBRANCH  13  14
ENDBRANCH   7  12
BRANCH   1  24
HETATM   24  C   UNL     1     -20.634 -10.926  -1.124  1.00  0.00    -0.017 A 
HETATM   25  C   UNL     1     -21.706 -11.793  -0.775  1.00  0.00    -0.014 A 
HETATM   26  C   UNL     1     -21.394 -12.959  -0.001  1.00  0.00     0.011 A 
HETATM   27  C   UNL     1     -20.099 -13.334   0.352  1.00  0.00     0.001 A 
HETATM   28  C   UNL     1     -19.049 -12.561  -0.074  1.00  0.00     0.001 A 
HETATM   29  C   UNL     1     -19.321 -11.385  -0.768  1.00  0.00     0.013 A 
BRANCH  25  30
HETATM   30  C   UNL     1     -23.196 -11.648  -1.138  1.00  0.00     0.078 C 
HETATM   31  C   UNL     1     -23.885 -10.713  -0.129  1.00  0.00     0.051 C 
HETATM   32  C   UNL     1     -23.912 -13.016  -1.163  1.00  0.00     0.051 C 
BRANCH  30  33
HETATM   33  O   UNL     1     -23.410 -11.119  -2.444  1.00  0.00    -0.386 OA
HETATM   34  H   UNL     1     -24.353 -10.912  -2.536  1.00  0.00     0.211 HD
ENDBRANCH  30  33
ENDBRANCH  25  30
ENDBRANCH   1  24
TORSDOF 6
ENDMDL
MODEL 5
REMARK VINA RESULT:      -8.8      3.230      5.200
REMARK  6 active torsions:
REMARK  status: ('A' for Active; 'I' for Inactive)
REMARK    1  A    between atoms: C_2  and  O_4 
REMARK    2  A    between atoms: C_2  and  C_5 
REMARK    3  A    between atoms: C_10  and  C_11 
REMARK    4  A    between atoms: C_17  and  C_18 
REMARK    5  A    between atoms: C_19  and  C_20 
REMARK    6  A    between atoms: C_23  and  C_24 
ROOT
HETATM    1  C   UNL     1     -20.930 -11.044   0.016  1.00  0.00    -0.023 C 
HETATM    2  C   UNL     1     -20.957  -9.965   0.937  1.00  0.00     0.014 C 
HETATM    3  C   UNL     1     -21.260  -8.656   0.576  1.00  0.00     0.033 C 
HETATM    4  C   UNL     1     -21.362  -8.363  -0.776  1.00  0.00     0.060 A 
HETATM    5  N   UNL     1     -21.607  -7.158  -1.345  1.00  0.00    -0.341 N 
ATOM      6  HN  UNL     1     -21.826  -6.288  -0.860  1.00  0.00     0.167 HD
HETATM    7  C   UNL     1     -21.509  -7.329  -2.643  1.00  0.00     0.106 A 
HETATM    8  N   UNL     1     -21.245  -8.657  -2.929  1.00  0.00    -0.341 N 
HETATM    9  C   UNL     1     -21.197  -9.355  -1.728  1.00  0.00     0.061 A 
HETATM   10  C   UNL     1     -21.041 -10.714  -1.363  1.00  0.00     0.044 C 
HETATM   11  H   UNL     1     -21.075  -9.048  -3.841  1.00  0.00     0.167 HD
ENDROOT
BRANCH   7  12
HETATM   12  C   UNL     1     -21.667  -6.316  -3.631  1.00  0.00     0.049 C 
HETATM   13  C   UNL     1     -21.543  -6.742  -4.907  1.00  0.00     0.015 C 
BRANCH  13  14
HETATM   14  C   UNL     1     -21.589  -6.012  -6.171  1.00  0.00    -0.036 A 
HETATM   15  C   UNL     1     -22.747  -5.256  -6.424  1.00  0.00     0.012 A 
HETATM   16  C   UNL     1     -22.882  -4.505  -7.591  1.00  0.00     0.017 A 
HETATM   17  C   UNL     1     -21.848  -4.476  -8.532  1.00  0.00     0.048 A 
HETATM   18  C   UNL     1     -20.662  -5.179  -8.250  1.00  0.00     0.017 A 
HETATM   19  C   UNL     1     -20.531  -5.938  -7.078  1.00  0.00     0.012 A 
BRANCH  17  20
HETATM   20  C   UNL     1     -22.003  -3.719  -9.827  1.00  0.00     0.417 C 
HETATM   21  F   UNL     1     -22.779  -2.603  -9.718  1.00  0.00    -0.166 F 
HETATM   22  F   UNL     1     -20.815  -3.298 -10.340  1.00  0.00    -0.166 F 
HETATM   23  F   UNL     1     -22.585  -4.477 -10.798  1.00  0.00    -0.166 F 
ENDBRANCH  17  20
ENDBRANCH  13  14
ENDBRANCH   7  12
BRANCH   1  24
HETATM   24  C   UNL     1     -20.973 -12.447   0.584  1.00  0.00    -0.017 A 
HETATM   25  C   UNL     1     -20.033 -13.506   0.456  1.00  0.00    -0.014 A 
HETATM   26  C   UNL     1     -20.420 -14.801   0.936  1.00  0.00     0.011 A 
HETATM   27  C   UNL     1     -21.620 -15.059   1.594  1.00  0.00     0.001 A 
HETATM   28  C   UNL     1     -22.487 -14.019   1.819  1.00  0.00     0.001 A 
HETATM   29  C   UNL     1     -22.174 -12.764   1.304  1.00  0.00     0.013 A 
BRANCH  25  30
HETATM   30  C   UNL     1     -18.611 -13.443  -0.135  1.00  0.00     0.078 C 
HETATM   31  C   UNL     1     -17.879 -14.768   0.140  1.00  0.00     0.051 C 
HETATM   32  C   UNL     1     -17.804 -12.263   0.450  1.00  0.00     0.051 C 
BRANCH  30  33
HETATM   33  O   UNL     1     -18.594 -13.215  -1.541  1.00  0.00    -0.386 OA
HETATM   34  H   UNL     1     -19.503 -13.284  -1.870  1.00  0.00     0.211 HD
ENDBRANCH  30  33
ENDBRANCH  25  30
ENDBRANCH   1  24
TORSDOF 6
ENDMDL
MODEL 6
REMARK VINA RESULT:      -8.7      4.299      6.753
REMARK  6 active torsions:
REMARK  status: ('A' for Active; 'I' for Inactive)
REMARK    1  A    between atoms: C_2  and  O_4 
REMARK    2  A    between atoms: C_2  and  C_5 
REMARK    3  A    between atoms: C_10  and  C_11 
REMARK    4  A    between atoms: C_17  and  C_18 
REMARK    5  A    between atoms: C_19  and  C_20 
REMARK    6  A    between atoms: C_23  and  C_24 
ROOT
HETATM    1  C   UNL     1     -22.212 -12.884   0.949  1.00  0.00    -0.023 C 
HETATM    2  C   UNL     1     -23.446 -12.748   0.263  1.00  0.00     0.014 C 
HETATM    3  C   UNL     1     -23.644 -11.858  -0.789  1.00  0.00     0.033 C 
HETATM    4  C   UNL     1     -22.642 -10.938  -1.058  1.00  0.00     0.060 A 
HETATM    5  N   UNL     1     -22.643  -9.965  -2.001  1.00  0.00    -0.341 N 
ATOM      6  HN  UNL     1     -23.359  -9.804  -2.710  1.00  0.00     0.167 HD
HETATM    7  C   UNL     1     -21.544  -9.269  -1.823  1.00  0.00     0.106 A 
HETATM    8  N   UNL     1     -20.797  -9.813  -0.795  1.00  0.00    -0.341 N 
HETATM    9  C   UNL     1     -21.472 -10.931  -0.317  1.00  0.00     0.061 A 
HETATM   10  C   UNL     1     -21.202 -11.929   0.651  1.00  0.00     0.044 C 
HETATM   11  H   UNL     1     -19.937  -9.446  -0.423  1.00  0.00     0.167 HD
ENDROOT
BRANCH   7  12
HETATM   12  C   UNL     1     -21.149  -8.130  -2.582  1.00  0.00     0.049 C 
HETATM   13  C   UNL     1     -21.541  -8.145  -3.875  1.00  0.00     0.015 C 
BRANCH  13  14
HETATM   14  C   UNL     1     -21.294  -7.202  -4.963  1.00  0.00    -0.036 A 
HETATM   15  C   UNL     1     -22.333  -6.308  -5.274  1.00  0.00     0.012 A 
HETATM   16  C   UNL     1     -22.190  -5.354  -6.281  1.00  0.00     0.017 A 
HETATM   17  C   UNL     1     -20.990  -5.257  -6.993  1.00  0.00     0.048 A 
HETATM   18  C   UNL     1     -19.927  -6.107  -6.638  1.00  0.00     0.017 A 
HETATM   19  C   UNL     1     -20.075  -7.070  -5.628  1.00  0.00     0.012 A 
BRANCH  17  20
HETATM   20  C   UNL     1     -20.841  -4.273  -8.126  1.00  0.00     0.417 C 
HETATM   21  F   UNL     1     -20.964  -4.838  -9.361  1.00  0.00    -0.166 F 
HETATM   22  F   UNL     1     -21.762  -3.271  -8.082  1.00  0.00    -0.166 F 
HETATM   23  F   UNL     1     -19.622  -3.664  -8.120  1.00  0.00    -0.166 F 
ENDBRANCH  17  20
ENDBRANCH  13  14
ENDBRANCH   7  12
BRANCH   1  24
HETATM   24  C   UNL     1     -22.015 -14.129   1.789  1.00  0.00    -0.017 A 
HETATM   25  C   UNL     1     -21.201 -15.269   1.544  1.00  0.00    -0.014 A 
HETATM   26  C   UNL     1     -21.355 -16.397   2.417  1.00  0.00     0.011 A 
HETATM   27  C   UNL     1     -22.187 -16.406   3.534  1.00  0.00     0.001 A 
HETATM   28  C   UNL     1     -22.894 -15.271   3.841  1.00  0.00     0.001 A 
HETATM   29  C   UNL     1     -22.821 -14.183   2.976  1.00  0.00     0.013 A 
BRANCH  25  30
HETATM   30  C   UNL     1     -20.139 -15.454   0.443  1.00  0.00     0.078 C 
HETATM   31  C   UNL     1     -19.769 -16.943   0.328  1.00  0.00     0.051 C 
HETATM   32  C   UNL     1     -18.873 -14.616   0.727  1.00  0.00     0.051 C 
BRANCH  30  33
HETATM   33  O   UNL     1     -20.572 -15.009  -0.839  1.00  0.00    -0.386 OA
HETATM   34  H   UNL     1     -21.540 -15.067  -0.870  1.00  0.00     0.211 HD
ENDBRANCH  30  33
ENDBRANCH  25  30
ENDBRANCH   1  24
TORSDOF 6
ENDMDL
MODEL 7
REMARK VINA RESULT:      -8.6      2.283      3.673
REMARK  6 active torsions:
REMARK  status: ('A' for Active; 'I' for Inactive)
REMARK    1  A    between atoms: C_2  and  O_4 
REMARK    2  A    between atoms: C_2  and  C_5 
REMARK    3  A    between atoms: C_10  and  C_11 
REMARK    4  A    between atoms: C_17  and  C_18 
REMARK    5  A    between atoms: C_19  and  C_20 
REMARK    6  A    between atoms: C_23  and  C_24 
ROOT
HETATM    1  C   UNL     1     -21.625  -9.637  -1.007  1.00  0.00    -0.023 C 
HETATM    2  C   UNL     1     -21.884  -8.462  -0.255  1.00  0.00     0.014 C 
HETATM    3  C   UNL     1     -22.000  -7.197  -0.825  1.00  0.00     0.033 C 
HETATM    4  C   UNL     1     -21.668  -7.056  -2.164  1.00  0.00     0.060 A 
HETATM    5  N   UNL     1     -21.670  -5.919  -2.901  1.00  0.00    -0.341 N 
ATOM      6  HN  UNL     1     -21.987  -4.998  -2.600  1.00  0.00     0.167 HD
HETATM    7  C   UNL     1     -21.185  -6.235  -4.080  1.00  0.00     0.106 A 
HETATM    8  N   UNL     1     -20.909  -7.590  -4.132  1.00  0.00    -0.341 N 
HETATM    9  C   UNL     1     -21.264  -8.150  -2.910  1.00  0.00     0.061 A 
HETATM   10  C   UNL     1     -21.291  -9.461  -2.378  1.00  0.00     0.044 C 
HETATM   11  H   UNL     1     -20.485  -8.082  -4.901  1.00  0.00     0.167 HD
ENDROOT
BRANCH   7  12
HETATM   12  C   UNL     1     -20.985  -5.337  -5.166  1.00  0.00     0.049 C 
HETATM   13  C   UNL     1     -21.789  -5.546  -6.232  1.00  0.00     0.015 C 
BRANCH  13  14
HETATM   14  C   UNL     1     -21.853  -4.880  -7.530  1.00  0.00    -0.036 A 
HETATM   15  C   UNL     1     -23.079  -4.286  -7.877  1.00  0.00     0.012 A 
HETATM   16  C   UNL     1     -23.239  -3.606  -9.084  1.00  0.00     0.017 A 
HETATM   17  C   UNL     1     -22.165  -3.488  -9.972  1.00  0.00     0.048 A 
HETATM   18  C   UNL     1     -20.920  -4.025  -9.597  1.00  0.00     0.017 A 
HETATM   19  C   UNL     1     -20.763  -4.713  -8.384  1.00  0.00     0.012 A 
BRANCH  17  20
HETATM   20  C   UNL     1     -22.338  -2.810 -11.309  1.00  0.00     0.417 C 
HETATM   21  F   UNL     1     -23.376  -3.306 -12.042  1.00  0.00    -0.166 F 
HETATM   22  F   UNL     1     -22.564  -1.472 -11.199  1.00  0.00    -0.166 F 
HETATM   23  F   UNL     1     -21.235  -2.942 -12.098  1.00  0.00    -0.166 F 
ENDBRANCH  17  20
ENDBRANCH  13  14
ENDBRANCH   7  12
BRANCH   1  24
HETATM   24  C   UNL     1     -21.905 -10.967  -0.340  1.00  0.00    -0.017 A 
HETATM   25  C   UNL     1     -21.016 -12.035  -0.037  1.00  0.00    -0.014 A 
HETATM   26  C   UNL     1     -21.588 -13.267   0.423  1.00  0.00     0.011 A 
HETATM   27  C   UNL     1     -22.947 -13.448   0.670  1.00  0.00     0.001 A 
HETATM   28  C   UNL     1     -23.799 -12.389   0.483  1.00  0.00     0.001 A 
HETATM   29  C   UNL     1     -23.287 -11.200  -0.029  1.00  0.00     0.013 A 
BRANCH  25  30
HETATM   30  C   UNL     1     -19.478 -12.040  -0.127  1.00  0.00     0.078 C 
HETATM   31  C   UNL     1     -19.044 -11.735  -1.571  1.00  0.00     0.051 C 
HETATM   32  C   UNL     1     -18.885 -13.392   0.328  1.00  0.00     0.051 C 
BRANCH  30  33
HETATM   33  O   UNL     1     -18.860 -11.082   0.729  1.00  0.00    -0.386 OA
HETATM   34  H   UNL     1     -17.994 -11.429   0.995  1.00  0.00     0.211 HD
ENDBRANCH  30  33
ENDBRANCH  25  30
ENDBRANCH   1  24
TORSDOF 6
ENDMDL
MODEL 8
REMARK VINA RESULT:      -8.6     11.195     14.639
REMARK  6 active torsions:
REMARK  status: ('A' for Active; 'I' for Inactive)
REMARK    1  A    between atoms: C_2  and  O_4 
REMARK    2  A    between atoms: C_2  and  C_5 
REMARK    3  A    between atoms: C_10  and  C_11 
REMARK    4  A    between atoms: C_17  and  C_18 
REMARK    5  A    between atoms: C_19  and  C_20 
REMARK    6  A    between atoms: C_23  and  C_24 
ROOT
HETATM    1  C   UNL     1     -19.883 -11.304  -0.996  1.00  0.00    -0.023 C 
HETATM    2  C   UNL     1     -19.270 -10.626  -2.081  1.00  0.00     0.014 C 
HETATM    3  C   UNL     1     -17.990 -10.920  -2.543  1.00  0.00     0.033 C 
HETATM    4  C   UNL     1     -17.214 -11.790  -1.793  1.00  0.00     0.060 A 
HETATM    5  N   UNL     1     -15.938 -12.178  -2.034  1.00  0.00    -0.341 N 
ATOM      6  HN  UNL     1     -15.373 -11.943  -2.851  1.00  0.00     0.167 HD
HETATM    7  C   UNL     1     -15.570 -12.916  -1.013  1.00  0.00     0.106 A 
HETATM    8  N   UNL     1     -16.620 -13.052  -0.122  1.00  0.00    -0.341 N 
HETATM    9  C   UNL     1     -17.714 -12.367  -0.638  1.00  0.00     0.061 A 
HETATM   10  C   UNL     1     -19.064 -12.192  -0.247  1.00  0.00     0.044 C 
HETATM   11  H   UNL     1     -16.591 -13.526   0.765  1.00  0.00     0.167 HD
ENDROOT
BRANCH   7  12
HETATM   12  C   UNL     1     -14.291 -13.517  -0.838  1.00  0.00     0.049 C 
HETATM   13  C   UNL     1     -13.912 -13.680   0.449  1.00  0.00     0.015 C 
BRANCH  13  14
HETATM   14  C   UNL     1     -12.676 -14.202   1.026  1.00  0.00    -0.036 A 
HETATM   15  C   UNL     1     -11.493 -13.503   0.728  1.00  0.00     0.012 A 
HETATM   16  C   UNL     1     -10.263 -13.907   1.247  1.00  0.00     0.017 A 
HETATM   17  C   UNL     1     -10.187 -15.015   2.095  1.00  0.00     0.048 A 
HETATM   18  C   UNL     1     -11.378 -15.676   2.447  1.00  0.00     0.017 A 
HETATM   19  C   UNL     1     -12.614 -15.271   1.920  1.00  0.00     0.012 A 
BRANCH  17  20
HETATM   20  C   UNL     1      -8.857 -15.501   2.615  1.00  0.00     0.417 C 
HETATM   21  F   UNL     1      -8.104 -14.521   3.192  1.00  0.00    -0.166 F 
HETATM   22  F   UNL     1      -8.980 -16.479   3.554  1.00  0.00    -0.166 F 
HETATM   23  F   UNL     1      -8.081 -16.026   1.626  1.00  0.00    -0.166 F 
ENDBRANCH  17  20
ENDBRANCH  13  14
ENDBRANCH   7  12
BRANCH   1  24
HETATM   24  C   UNL     1     -21.384 -11.166  -0.847  1.00  0.00    -0.017 A 
HETATM   25  C   UNL     1     -22.143 -10.132  -0.233  1.00  0.00    -0.014 A 
HETATM   26  C   UNL     1     -23.550 -10.353  -0.061  1.00  0.00     0.011 A 
HETATM   27  C   UNL     1     -24.225 -11.476  -0.534  1.00  0.00     0.001 A 
HETATM   28  C   UNL     1     -23.518 -12.429  -1.224  1.00  0.00     0.001 A 
HETATM   29  C   UNL     1     -22.139 -12.280  -1.349  1.00  0.00     0.013 A 
BRANCH  25  30
HETATM   30  C   UNL     1     -21.645  -8.765   0.273  1.00  0.00     0.078 C 
HETATM   31  C   UNL     1     -20.812  -8.960   1.552  1.00  0.00     0.051 C 
HETATM   32  C   UNL     1     -22.817  -7.798   0.549  1.00  0.00     0.051 C 
BRANCH  30  33
HETATM   33  O   UNL     1     -20.838  -8.073  -0.675  1.00  0.00    -0.386 OA
HETATM   34  H   UNL     1     -21.332  -8.013  -1.508  1.00  0.00     0.211 HD
ENDBRANCH  30  33
ENDBRANCH  25  30
ENDBRANCH   1  24
TORSDOF 6
ENDMDL
MODEL 9
REMARK VINA RESULT:      -8.3     17.801     19.972
REMARK  6 active torsions:
REMARK  status: ('A' for Active; 'I' for Inactive)
REMARK    1  A    between atoms: C_2  and  O_4 
REMARK    2  A    between atoms: C_2  and  C_5 
REMARK    3  A    between atoms: C_10  and  C_11 
REMARK    4  A    between atoms: C_17  and  C_18 
REMARK    5  A    between atoms: C_19  and  C_20 
REMARK    6  A    between atoms: C_23  and  C_24 
ROOT
HETATM    1  C   UNL     1     -24.166   8.994  -0.855  1.00  0.00    -0.023 C 
HETATM    2  C   UNL     1     -23.775  10.341  -1.072  1.00  0.00     0.014 C 
HETATM    3  C   UNL     1     -22.698  10.939  -0.425  1.00  0.00     0.033 C 
HETATM    4  C   UNL     1     -22.094  10.242   0.610  1.00  0.00     0.060 A 
HETATM    5  N   UNL     1     -21.066  10.650   1.394  1.00  0.00    -0.341 N 
ATOM      6  HN  UNL     1     -20.529  11.511   1.295  1.00  0.00     0.167 HD
HETATM    7  C   UNL     1     -20.897   9.720   2.305  1.00  0.00     0.106 A 
HETATM    8  N   UNL     1     -21.782   8.678   2.092  1.00  0.00    -0.341 N 
HETATM    9  C   UNL     1     -22.536   8.978   0.962  1.00  0.00     0.061 A 
HETATM   10  C   UNL     1     -23.527   8.303   0.210  1.00  0.00     0.044 C 
HETATM   11  H   UNL     1     -21.896   7.864   2.672  1.00  0.00     0.167 HD
ENDROOT
BRANCH   7  12
HETATM   12  C   UNL     1     -19.935   9.748   3.354  1.00  0.00     0.049 C 
HETATM   13  C   UNL     1     -18.663   9.510   2.965  1.00  0.00     0.015 C 
BRANCH  13  14
HETATM   14  C   UNL     1     -17.427   9.408   3.738  1.00  0.00    -0.036 A 
HETATM   15  C   UNL     1     -16.235   9.739   3.071  1.00  0.00     0.012 A 
HETATM   16  C   UNL     1     -15.003   9.696   3.724  1.00  0.00     0.017 A 
HETATM   17  C   UNL     1     -14.936   9.336   5.073  1.00  0.00     0.048 A 
HETATM   18  C   UNL     1     -16.135   9.069   5.759  1.00  0.00     0.017 A 
HETATM   19  C   UNL     1     -17.371   9.108   5.098  1.00  0.00     0.012 A 
BRANCH  17  20
HETATM   20  C   UNL     1     -13.606   9.225   5.777  1.00  0.00     0.417 C 
HETATM   21  F   UNL     1     -12.537   9.246   4.932  1.00  0.00    -0.166 F 
HETATM   22  F   UNL     1     -13.395  10.229   6.672  1.00  0.00    -0.166 F 
HETATM   23  F   UNL     1     -13.494   8.064   6.482  1.00  0.00    -0.166 F 
ENDBRANCH  17  20
ENDBRANCH  13  14
ENDBRANCH   7  12
BRANCH   1  24
HETATM   24  C   UNL     1     -25.082   8.361  -1.882  1.00  0.00    -0.017 A 
HETATM   25  C   UNL     1     -26.503   8.335  -1.936  1.00  0.00    -0.014 A 
HETATM   26  C   UNL     1     -27.116   7.492  -2.921  1.00  0.00     0.011 A 
HETATM   27  C   UNL     1     -26.405   6.769  -3.876  1.00  0.00     0.001 A 
HETATM   28  C   UNL     1     -25.037   6.874  -3.900  1.00  0.00     0.001 A 
HETATM   29  C   UNL     1     -24.406   7.629  -2.915  1.00  0.00     0.013 A 
BRANCH  25  30
HETATM   30  C   UNL     1     -27.498   9.124  -1.062  1.00  0.00     0.078 C 
HETATM   31  C   UNL     1     -27.452   8.593   0.381  1.00  0.00     0.051 C 
HETATM   32  C   UNL     1     -28.938   9.030  -1.613  1.00  0.00     0.051 C 
BRANCH  30  33
HETATM   33  O   UNL     1     -27.230  10.523  -1.024  1.00  0.00    -0.386 OA
HETATM   34  H   UNL     1     -26.865  10.785  -1.884  1.00  0.00     0.211 HD
ENDBRANCH  30  33
ENDBRANCH  25  30
ENDBRANCH   1  24
TORSDOF 6
ENDMDL
