MODEL 1
REMARK VINA RESULT:      -8.5      0.000      0.000
REMARK  4 active torsions:
REMARK  status: ('A' for Active; 'I' for Inactive)
REMARK       I    between atoms: C_2  and  N_3 
REMARK       I    between atoms: C_2  and  N_11 
REMARK    1  A    between atoms: N_3  and  C_4 
REMARK    2  A    between atoms: N_11  and  C_12 
REMARK    3  A    between atoms: N_15  and  C_16 
REMARK    4  A    between atoms: C_19  and  C_20 
ROOT
HETATM    1  C   UNL     1     -21.537  -6.419  -4.928  1.00  0.00     0.105 C 
HETATM    2  C   UNL     1     -20.275  -5.769  -5.486  1.00  0.00     0.046 C 
HETATM    3  C   UNL     1     -20.765  -4.476  -6.133  1.00  0.00     0.126 C 
HETATM    4  N   UNL     1     -22.123  -4.776  -6.570  1.00  0.00    -0.365 N 
HETATM    5  C   UNL     1     -22.632  -5.997  -5.935  1.00  0.00     0.149 C 
ENDROOT
BRANCH   1   6
HETATM    6  N   UNL     1     -21.810  -5.976  -3.563  1.00  0.00    -0.337 N 
HETATM    7  C   UNL     1     -21.900  -6.740  -2.435  1.00  0.00     0.321 C 
HETATM    8  O   UNL     1     -22.417  -6.247  -1.432  1.00  0.00    -0.247 OA
HETATM    9  N   UNL     1     -21.367  -7.996  -2.520  1.00  0.00    -0.308 N 
HETATM   10  H   UNL     1     -20.544  -8.061  -3.103  1.00  0.00     0.170 HD
HETATM   11  H   UNL     1     -22.159  -5.034  -3.426  1.00  0.00     0.164 HD
BRANCH   9  12
HETATM   12  C   UNL     1     -21.428  -8.946  -1.467  1.00  0.00     0.053 A 
HETATM   13  C   UNL     1     -21.019  -8.615  -0.170  1.00  0.00     0.031 A 
HETATM   14  C   UNL     1     -21.100  -9.556   0.862  1.00  0.00     0.002 A 
HETATM   15  C   UNL     1     -21.577 -10.840   0.603  1.00  0.00     0.002 A 
HETATM   16  C   UNL     1     -21.991 -11.181  -0.684  1.00  0.00     0.021 A 
HETATM   17  C   UNL     1     -21.935 -10.232  -1.709  1.00  0.00     0.037 A 
HETATM   18 BR   UNL     1     -22.485 -10.763  -3.450  1.00  0.00    -0.049 Br
ENDBRANCH   9  12
ENDBRANCH   1   6
BRANCH   4  19
HETATM   19  C   UNL     1     -22.589  -4.431  -7.824  1.00  0.00     0.102 A 
HETATM   20  C   UNL     1     -21.725  -4.291  -8.909  1.00  0.00     0.049 A 
HETATM   21  C   UNL     1     -22.212  -3.880 -10.155  1.00  0.00     0.021 A 
HETATM   22  C   UNL     1     -23.568  -3.614 -10.312  1.00  0.00     0.063 A 
HETATM   23  C   UNL     1     -24.369  -3.791  -9.196  1.00  0.00     0.106 A 
HETATM   24  N   UNL     1     -23.908  -4.178  -7.981  1.00  0.00    -0.352 N 
ATOM     25  HN  UNL     1     -24.549  -4.276  -7.194  1.00  0.00     0.166 HD
BRANCH  22  26
HETATM   26  C   UNL     1     -24.170  -3.138 -11.595  1.00  0.00     0.418 C 
HETATM   27  F   UNL     1     -23.433  -2.175 -12.215  1.00  0.00    -0.166 F 
HETATM   28  F   UNL     1     -24.317  -4.137 -12.509  1.00  0.00    -0.166 F 
HETATM   29  F   UNL     1     -25.411  -2.604 -11.424  1.00  0.00    -0.166 F 
ENDBRANCH  22  26
ENDBRANCH   4  19
TORSDOF 4
ENDMDL
MODEL 2
REMARK VINA RESULT:      -8.3      3.104      4.308
REMARK  4 active torsions:
REMARK  status: ('A' for Active; 'I' for Inactive)
REMARK       I    between atoms: C_2  and  N_3 
REMARK       I    between atoms: C_2  and  N_11 
REMARK    1  A    between atoms: N_3  and  C_4 
REMARK    2  A    between atoms: N_11  and  C_12 
REMARK    3  A    between atoms: N_15  and  C_16 
REMARK    4  A    between atoms: C_19  and  C_20 
ROOT
HETATM    1  C   UNL     1     -19.942 -11.080  -4.882  1.00  0.00     0.105 C 
HETATM    2  C   UNL     1     -18.636 -10.628  -5.526  1.00  0.00     0.046 C 
HETATM    3  C   UNL     1     -18.525  -9.148  -5.168  1.00  0.00     0.126 C 
HETATM    4  N   UNL     1     -19.906  -8.692  -5.064  1.00  0.00    -0.365 N 
HETATM    5  C   UNL     1     -20.836  -9.822  -4.966  1.00  0.00     0.149 C 
ENDROOT
BRANCH   1   6
HETATM    6  N   UNL     1     -19.732 -11.546  -3.514  1.00  0.00    -0.337 N 
HETATM    7  C   UNL     1     -20.239 -11.019  -2.361  1.00  0.00     0.321 C 
HETATM    8  O   UNL     1     -19.733 -11.354  -1.290  1.00  0.00    -0.247 OA
HETATM    9  N   UNL     1     -21.304 -10.174  -2.508  1.00  0.00    -0.308 N 
HETATM   10  H   UNL     1     -21.930 -10.421  -3.261  1.00  0.00     0.170 HD
HETATM   11  H   UNL     1     -18.989 -12.215  -3.345  1.00  0.00     0.164 HD
BRANCH   9  12
HETATM   12  C   UNL     1     -21.915  -9.489  -1.425  1.00  0.00     0.053 A 
HETATM   13  C   UNL     1     -21.458  -8.230  -1.017  1.00  0.00     0.031 A 
HETATM   14  C   UNL     1     -22.080  -7.559   0.041  1.00  0.00     0.002 A 
HETATM   15  C   UNL     1     -23.153  -8.146   0.710  1.00  0.00     0.002 A 
HETATM   16  C   UNL     1     -23.619  -9.398   0.311  1.00  0.00     0.021 A 
HETATM   17  C   UNL     1     -23.015 -10.057  -0.765  1.00  0.00     0.037 A 
HETATM   18 BR   UNL     1     -23.674 -11.775  -1.244  1.00  0.00    -0.049 Br
ENDBRANCH   9  12
ENDBRANCH   1   6
BRANCH   4  19
HETATM   19  C   UNL     1     -20.341  -7.516  -5.643  1.00  0.00     0.102 A 
HETATM   20  C   UNL     1     -21.535  -6.910  -5.254  1.00  0.00     0.049 A 
HETATM   21  C   UNL     1     -21.986  -5.752  -5.898  1.00  0.00     0.021 A 
HETATM   22  C   UNL     1     -21.234  -5.201  -6.930  1.00  0.00     0.063 A 
HETATM   23  C   UNL     1     -20.051  -5.845  -7.252  1.00  0.00     0.106 A 
HETATM   24  N   UNL     1     -19.610  -6.974  -6.643  1.00  0.00    -0.352 N 
ATOM     25  HN  UNL     1     -18.735  -7.409  -6.937  1.00  0.00     0.166 HD
BRANCH  22  26
HETATM   26  C   UNL     1     -21.656  -3.987  -7.697  1.00  0.00     0.418 C 
HETATM   27  F   UNL     1     -21.056  -3.879  -8.914  1.00  0.00    -0.166 F 
HETATM   28  F   UNL     1     -22.995  -3.958  -7.939  1.00  0.00    -0.166 F 
HETATM   29  F   UNL     1     -21.372  -2.829  -7.039  1.00  0.00    -0.166 F 
ENDBRANCH  22  26
ENDBRANCH   4  19
TORSDOF 4
ENDMDL
MODEL 3
REMARK VINA RESULT:      -8.2      2.808      4.060
REMARK  4 active torsions:
REMARK  status: ('A' for Active; 'I' for Inactive)
REMARK       I    between atoms: C_2  and  N_3 
REMARK       I    between atoms: C_2  and  N_11 
REMARK    1  A    between atoms: N_3  and  C_4 
REMARK    2  A    between atoms: N_11  and  C_12 
REMARK    3  A    between atoms: N_15  and  C_16 
REMARK    4  A    between atoms: C_19  and  C_20 
ROOT
HETATM    1  C   UNL     1     -20.964  -9.588  -3.280  1.00  0.00     0.105 C 
HETATM    2  C   UNL     1     -19.899  -9.993  -4.295  1.00  0.00     0.046 C 
HETATM    3  C   UNL     1     -19.288  -8.673  -4.755  1.00  0.00     0.126 C 
HETATM    4  N   UNL     1     -20.373  -7.706  -4.639  1.00  0.00    -0.365 N 
HETATM    5  C   UNL     1     -21.469  -8.229  -3.816  1.00  0.00     0.149 C 
ENDROOT
BRANCH   1   6
HETATM    6  N   UNL     1     -20.414  -9.505  -1.930  1.00  0.00    -0.337 N 
HETATM    7  C   UNL     1     -20.673 -10.322  -0.867  1.00  0.00     0.321 C 
HETATM    8  O   UNL     1     -20.352  -9.940   0.259  1.00  0.00    -0.247 OA
HETATM    9  N   UNL     1     -21.248 -11.527  -1.165  1.00  0.00    -0.308 N 
HETATM   10  H   UNL     1     -20.943 -11.928  -2.040  1.00  0.00     0.170 HD
HETATM   11  H   UNL     1     -19.928  -8.657  -1.662  1.00  0.00     0.164 HD
BRANCH   9  12
HETATM   12  C   UNL     1     -21.643 -12.470  -0.181  1.00  0.00     0.053 A 
HETATM   13  C   UNL     1     -20.774 -13.485   0.237  1.00  0.00     0.031 A 
HETATM   14  C   UNL     1     -21.172 -14.399   1.219  1.00  0.00     0.002 A 
HETATM   15  C   UNL     1     -22.444 -14.315   1.781  1.00  0.00     0.002 A 
HETATM   16  C   UNL     1     -23.317 -13.306   1.376  1.00  0.00     0.021 A 
HETATM   17  C   UNL     1     -22.911 -12.376   0.413  1.00  0.00     0.037 A 
HETATM   18 BR   UNL     1     -24.155 -11.042  -0.121  1.00  0.00    -0.049 Br
ENDBRANCH   9  12
ENDBRANCH   1   6
BRANCH   4  19
HETATM   19  C   UNL     1     -20.661  -6.796  -5.637  1.00  0.00     0.102 A 
HETATM   20  C   UNL     1     -21.827  -6.032  -5.613  1.00  0.00     0.049 A 
HETATM   21  C   UNL     1     -22.128  -5.161  -6.666  1.00  0.00     0.021 A 
HETATM   22  C   UNL     1     -21.254  -5.055  -7.743  1.00  0.00     0.063 A 
HETATM   23  C   UNL     1     -20.107  -5.830  -7.692  1.00  0.00     0.106 A 
HETATM   24  N   UNL     1     -19.811  -6.686  -6.683  1.00  0.00    -0.352 N 
ATOM     25  HN  UNL     1     -18.955  -7.240  -6.712  1.00  0.00     0.166 HD
BRANCH  22  26
HETATM   26  C   UNL     1     -21.511  -4.178  -8.927  1.00  0.00     0.418 C 
HETATM   27  F   UNL     1     -20.382  -3.614  -9.440  1.00  0.00    -0.166 F 
HETATM   28  F   UNL     1     -22.093  -4.848  -9.960  1.00  0.00    -0.166 F 
HETATM   29  F   UNL     1     -22.346  -3.142  -8.638  1.00  0.00    -0.166 F 
ENDBRANCH  22  26
ENDBRANCH   4  19
TORSDOF 4
ENDMDL
MODEL 4
REMARK VINA RESULT:      -8.1     17.774     19.678
REMARK  4 active torsions:
REMARK  status: ('A' for Active; 'I' for Inactive)
REMARK       I    between atoms: C_2  and  N_3 
REMARK       I    between atoms: C_2  and  N_11 
REMARK    1  A    between atoms: N_3  and  C_4 
REMARK    2  A    between atoms: N_11  and  C_12 
REMARK    3  A    between atoms: N_15  and  C_16 
REMARK    4  A    between atoms: C_19  and  C_20 
ROOT
HETATM    1  C   UNL     1     -20.811   8.889   3.004  1.00  0.00     0.105 C 
HETATM    2  C   UNL     1     -21.074   9.144   4.485  1.00  0.00     0.046 C 
HETATM    3  C   UNL     1     -19.946  10.076   4.919  1.00  0.00     0.126 C 
HETATM    4  N   UNL     1     -18.827   9.723   4.054  1.00  0.00    -0.365 N 
HETATM    5  C   UNL     1     -19.269   8.928   2.904  1.00  0.00     0.149 C 
ENDROOT
BRANCH   1   6
HETATM    6  N   UNL     1     -21.467   9.886   2.163  1.00  0.00    -0.337 N 
HETATM    7  C   UNL     1     -22.278   9.672   1.085  1.00  0.00     0.321 C 
HETATM    8  O   UNL     1     -22.506  10.614   0.327  1.00  0.00    -0.247 OA
HETATM    9  N   UNL     1     -22.794   8.411   0.966  1.00  0.00    -0.308 N 
HETATM   10  H   UNL     1     -23.006   7.963   1.847  1.00  0.00     0.170 HD
HETATM   11  H   UNL     1     -21.166  10.851   2.241  1.00  0.00     0.164 HD
BRANCH   9  12
HETATM   12  C   UNL     1     -23.602   7.996  -0.124  1.00  0.00     0.053 A 
HETATM   13  C   UNL     1     -23.048   7.318  -1.217  1.00  0.00     0.031 A 
HETATM   14  C   UNL     1     -23.859   6.901  -2.278  1.00  0.00     0.002 A 
HETATM   15  C   UNL     1     -25.227   7.169  -2.262  1.00  0.00     0.002 A 
HETATM   16  C   UNL     1     -25.791   7.839  -1.177  1.00  0.00     0.021 A 
HETATM   17  C   UNL     1     -24.985   8.234  -0.105  1.00  0.00     0.037 A 
HETATM   18 BR   UNL     1     -25.804   9.171   1.332  1.00  0.00    -0.049 Br
ENDBRANCH   9  12
ENDBRANCH   1   6
BRANCH   4  19
HETATM   19  C   UNL     1     -17.547   9.541   4.541  1.00  0.00     0.102 A 
HETATM   20  C   UNL     1     -17.286   9.501   5.910  1.00  0.00     0.049 A 
HETATM   21  C   UNL     1     -15.973   9.377   6.379  1.00  0.00     0.021 A 
HETATM   22  C   UNL     1     -14.922   9.290   5.472  1.00  0.00     0.063 A 
HETATM   23  C   UNL     1     -15.257   9.319   4.128  1.00  0.00     0.106 A 
HETATM   24  N   UNL     1     -16.523   9.450   3.662  1.00  0.00    -0.352 N 
ATOM     25  HN  UNL     1     -16.702   9.479   2.658  1.00  0.00     0.166 HD
BRANCH  22  26
HETATM   26  C   UNL     1     -13.488   9.191   5.883  1.00  0.00     0.418 C 
HETATM   27  F   UNL     1     -13.190   8.037   6.542  1.00  0.00    -0.166 F 
HETATM   28  F   UNL     1     -12.633   9.244   4.824  1.00  0.00    -0.166 F 
HETATM   29  F   UNL     1     -13.112  10.201   6.715  1.00  0.00    -0.166 F 
ENDBRANCH  22  26
ENDBRANCH   4  19
TORSDOF 4
ENDMDL
MODEL 5
REMARK VINA RESULT:      -7.9      1.660      2.223
REMARK  4 active torsions:
REMARK  status: ('A' for Active; 'I' for Inactive)
REMARK       I    between atoms: C_2  and  N_3 
REMARK       I    between atoms: C_2  and  N_11 
REMARK    1  A    between atoms: N_3  and  C_4 
REMARK    2  A    between atoms: N_11  and  C_12 
REMARK    3  A    between atoms: N_15  and  C_16 
REMARK    4  A    between atoms: C_19  and  C_20 
ROOT
HETATM    1  C   UNL     1     -21.478  -7.932  -4.406  1.00  0.00     0.105 C 
HETATM    2  C   UNL     1     -20.169  -7.887  -5.188  1.00  0.00     0.046 C 
HETATM    3  C   UNL     1     -20.058  -6.441  -5.664  1.00  0.00     0.126 C 
HETATM    4  N   UNL     1     -21.438  -5.999  -5.820  1.00  0.00    -0.365 N 
HETATM    5  C   UNL     1     -22.370  -6.908  -5.144  1.00  0.00     0.149 C 
ENDROOT
BRANCH   1   6
HETATM    6  N   UNL     1     -21.272  -7.607  -2.998  1.00  0.00    -0.337 N 
HETATM    7  C   UNL     1     -21.578  -8.369  -1.907  1.00  0.00     0.321 C 
HETATM    8  O   UNL     1     -21.606  -7.828  -0.801  1.00  0.00    -0.247 OA
HETATM    9  N   UNL     1     -21.799  -9.697  -2.148  1.00  0.00    -0.308 N 
HETATM   10  H   UNL     1     -21.229 -10.086  -2.886  1.00  0.00     0.170 HD
HETATM   11  H   UNL     1     -21.053  -6.647  -2.755  1.00  0.00     0.164 HD
BRANCH   9  12
HETATM   12  C   UNL     1     -22.190 -10.621  -1.145  1.00  0.00     0.053 A 
HETATM   13  C   UNL     1     -23.532 -10.758  -0.771  1.00  0.00     0.031 A 
HETATM   14  C   UNL     1     -23.904 -11.685   0.209  1.00  0.00     0.002 A 
HETATM   15  C   UNL     1     -22.938 -12.470   0.834  1.00  0.00     0.002 A 
HETATM   16  C   UNL     1     -21.598 -12.346   0.468  1.00  0.00     0.021 A 
HETATM   17  C   UNL     1     -21.229 -11.438  -0.530  1.00  0.00     0.037 A 
HETATM   18 BR   UNL     1     -19.384 -11.291  -0.966  1.00  0.00    -0.049 Br
ENDBRANCH   9  12
ENDBRANCH   1   6
BRANCH   4  19
HETATM   19  C   UNL     1     -21.870  -5.305  -6.933  1.00  0.00     0.102 A 
HETATM   20  C   UNL     1     -23.144  -4.740  -6.991  1.00  0.00     0.049 A 
HETATM   21  C   UNL     1     -23.582  -4.095  -8.153  1.00  0.00     0.021 A 
HETATM   22  C   UNL     1     -22.738  -4.013  -9.256  1.00  0.00     0.063 A 
HETATM   23  C   UNL     1     -21.481  -4.580  -9.121  1.00  0.00     0.106 A 
HETATM   24  N   UNL     1     -21.050  -5.218  -8.005  1.00  0.00    -0.352 N 
ATOM     25  HN  UNL     1     -20.117  -5.628  -7.974  1.00  0.00     0.166 HD
BRANCH  22  26
HETATM   26  C   UNL     1     -23.134  -3.374 -10.549  1.00  0.00     0.418 C 
HETATM   27  F   UNL     1     -22.078  -3.100 -11.364  1.00  0.00    -0.166 F 
HETATM   28  F   UNL     1     -23.977  -4.152 -11.283  1.00  0.00    -0.166 F 
HETATM   29  F   UNL     1     -23.782  -2.190 -10.370  1.00  0.00    -0.166 F 
ENDBRANCH  22  26
ENDBRANCH   4  19
TORSDOF 4
ENDMDL
MODEL 6
REMARK VINA RESULT:      -7.9      5.137      6.167
REMARK  4 active torsions:
REMARK  status: ('A' for Active; 'I' for Inactive)
REMARK       I    between atoms: C_2  and  N_3 
REMARK       I    between atoms: C_2  and  N_11 
REMARK    1  A    between atoms: N_3  and  C_4 
REMARK    2  A    between atoms: N_11  and  C_12 
REMARK    3  A    between atoms: N_15  and  C_16 
REMARK    4  A    between atoms: C_19  and  C_20 
ROOT
HETATM    1  C   UNL     1     -19.293  -9.584  -2.619  1.00  0.00     0.105 C 
HETATM    2  C   UNL     1     -20.632  -9.166  -2.020  1.00  0.00     0.046 C 
HETATM    3  C   UNL     1     -21.536  -8.935  -3.228  1.00  0.00     0.126 C 
HETATM    4  N   UNL     1     -20.631  -8.502  -4.286  1.00  0.00    -0.365 N 
HETATM    5  C   UNL     1     -19.234  -8.794  -3.947  1.00  0.00     0.149 C 
ENDROOT
BRANCH   1   6
HETATM    6  N   UNL     1     -19.217 -11.030  -2.806  1.00  0.00    -0.337 N 
HETATM    7  C   UNL     1     -18.131 -11.773  -3.170  1.00  0.00     0.321 C 
HETATM    8  O   UNL     1     -18.313 -12.927  -3.559  1.00  0.00    -0.247 OA
HETATM    9  N   UNL     1     -16.916 -11.162  -3.034  1.00  0.00    -0.308 N 
HETATM   10  H   UNL     1     -16.850 -10.536  -2.244  1.00  0.00     0.170 HD
HETATM   11  H   UNL     1     -20.085 -11.551  -2.862  1.00  0.00     0.164 HD
BRANCH   9  12
HETATM   12  C   UNL     1     -15.690 -11.762  -3.423  1.00  0.00     0.053 A 
HETATM   13  C   UNL     1     -15.034 -12.673  -2.588  1.00  0.00     0.031 A 
HETATM   14  C   UNL     1     -13.834 -13.269  -2.991  1.00  0.00     0.002 A 
HETATM   15  C   UNL     1     -13.272 -12.948  -4.226  1.00  0.00     0.002 A 
HETATM   16  C   UNL     1     -13.918 -12.044  -5.069  1.00  0.00     0.021 A 
HETATM   17  C   UNL     1     -15.131 -11.469  -4.677  1.00  0.00     0.037 A 
HETATM   18 BR   UNL     1     -15.950 -10.221  -5.855  1.00  0.00    -0.049 Br
ENDBRANCH   9  12
ENDBRANCH   1   6
BRANCH   4  19
HETATM   19  C   UNL     1     -20.910  -7.422  -5.100  1.00  0.00     0.102 A 
HETATM   20  C   UNL     1     -22.117  -6.730  -5.006  1.00  0.00     0.049 A 
HETATM   21  C   UNL     1     -22.402  -5.678  -5.884  1.00  0.00     0.021 A 
HETATM   22  C   UNL     1     -21.472  -5.318  -6.854  1.00  0.00     0.063 A 
HETATM   23  C   UNL     1     -20.288  -6.037  -6.878  1.00  0.00     0.106 A 
HETATM   24  N   UNL     1     -20.005  -7.065  -6.040  1.00  0.00    -0.352 N 
ATOM     25  HN  UNL     1     -19.119  -7.565  -6.119  1.00  0.00     0.166 HD
BRANCH  22  26
HETATM   26  C   UNL     1     -21.706  -4.232  -7.854  1.00  0.00     0.418 C 
HETATM   27  F   UNL     1     -20.956  -4.362  -8.983  1.00  0.00    -0.166 F 
HETATM   28  F   UNL     1     -23.000  -4.174  -8.274  1.00  0.00    -0.166 F 
HETATM   29  F   UNL     1     -21.421  -2.995  -7.360  1.00  0.00    -0.166 F 
ENDBRANCH  22  26
ENDBRANCH   4  19
TORSDOF 4
ENDMDL
MODEL 7
REMARK VINA RESULT:      -7.9      2.958      4.537
REMARK  4 active torsions:
REMARK  status: ('A' for Active; 'I' for Inactive)
REMARK       I    between atoms: C_2  and  N_3 
REMARK       I    between atoms: C_2  and  N_11 
REMARK    1  A    between atoms: N_3  and  C_4 
REMARK    2  A    between atoms: N_11  and  C_12 
REMARK    3  A    between atoms: N_15  and  C_16 
REMARK    4  A    between atoms: C_19  and  C_20 
ROOT
HETATM    1  C   UNL     1     -21.419  -9.237  -2.042  1.00  0.00     0.105 C 
HETATM    2  C   UNL     1     -20.620  -8.042  -1.531  1.00  0.00     0.046 C 
HETATM    3  C   UNL     1     -21.200  -6.846  -2.281  1.00  0.00     0.126 C 
HETATM    4  N   UNL     1     -21.649  -7.394  -3.555  1.00  0.00    -0.365 N 
HETATM    5  C   UNL     1     -21.730  -8.858  -3.508  1.00  0.00     0.149 C 
ENDROOT
BRANCH   1   6
HETATM    6  N   UNL     1     -22.618  -9.462  -1.239  1.00  0.00    -0.337 N 
HETATM    7  C   UNL     1     -23.012 -10.617  -0.625  1.00  0.00     0.321 C 
HETATM    8  O   UNL     1     -24.178 -10.708  -0.240  1.00  0.00    -0.247 OA
HETATM    9  N   UNL     1     -22.044 -11.569  -0.466  1.00  0.00    -0.308 N 
HETATM   10  H   UNL     1     -21.121 -11.199  -0.288  1.00  0.00     0.170 HD
HETATM   11  H   UNL     1     -23.354  -8.766  -1.272  1.00  0.00     0.164 HD
BRANCH   9  12
HETATM   12  C   UNL     1     -22.291 -12.850   0.093  1.00  0.00     0.053 A 
HETATM   13  C   UNL     1     -22.234 -13.059   1.476  1.00  0.00     0.031 A 
HETATM   14  C   UNL     1     -22.495 -14.324   2.014  1.00  0.00     0.002 A 
HETATM   15  C   UNL     1     -22.801 -15.393   1.174  1.00  0.00     0.002 A 
HETATM   16  C   UNL     1     -22.865 -15.197  -0.205  1.00  0.00     0.021 A 
HETATM   17  C   UNL     1     -22.629 -13.927  -0.741  1.00  0.00     0.037 A 
HETATM   18 BR   UNL     1     -22.700 -13.727  -2.630  1.00  0.00    -0.049 Br
ENDBRANCH   9  12
ENDBRANCH   1   6
BRANCH   4  19
HETATM   19  C   UNL     1     -21.379  -6.778  -4.761  1.00  0.00     0.102 A 
HETATM   20  C   UNL     1     -20.178  -6.991  -5.436  1.00  0.00     0.049 A 
HETATM   21  C   UNL     1     -19.901  -6.308  -6.625  1.00  0.00     0.021 A 
HETATM   22  C   UNL     1     -20.833  -5.413  -7.139  1.00  0.00     0.063 A 
HETATM   23  C   UNL     1     -22.011  -5.264  -6.426  1.00  0.00     0.106 A 
HETATM   24  N   UNL     1     -22.286  -5.912  -5.267  1.00  0.00    -0.352 N 
ATOM     25  HN  UNL     1     -23.168  -5.747  -4.781  1.00  0.00     0.166 HD
BRANCH  22  26
HETATM   26  C   UNL     1     -20.607  -4.614  -8.383  1.00  0.00     0.418 C 
HETATM   27  F   UNL     1     -21.758  -4.162  -8.954  1.00  0.00    -0.166 F 
HETATM   28  F   UNL     1     -19.843  -3.509  -8.166  1.00  0.00    -0.166 F 
HETATM   29  F   UNL     1     -19.967  -5.325  -9.352  1.00  0.00    -0.166 F 
ENDBRANCH  22  26
ENDBRANCH   4  19
TORSDOF 4
ENDMDL
MODEL 8
REMARK VINA RESULT:      -7.8      1.944      2.917
REMARK  4 active torsions:
REMARK  status: ('A' for Active; 'I' for Inactive)
REMARK       I    between atoms: C_2  and  N_3 
REMARK       I    between atoms: C_2  and  N_11 
REMARK    1  A    between atoms: N_3  and  C_4 
REMARK    2  A    between atoms: N_11  and  C_12 
REMARK    3  A    between atoms: N_15  and  C_16 
REMARK    4  A    between atoms: C_19  and  C_20 
ROOT
HETATM    1  C   UNL     1     -21.182  -5.453  -7.017  1.00  0.00     0.105 C 
HETATM    2  C   UNL     1     -20.197  -5.810  -8.125  1.00  0.00     0.046 C 
HETATM    3  C   UNL     1     -20.133  -4.559  -8.997  1.00  0.00     0.126 C 
HETATM    4  N   UNL     1     -21.451  -3.951  -8.863  1.00  0.00    -0.365 N 
HETATM    5  C   UNL     1     -22.182  -4.507  -7.719  1.00  0.00     0.149 C 
ENDROOT
BRANCH   1   6
HETATM    6  N   UNL     1     -20.507  -4.834  -5.879  1.00  0.00    -0.337 N 
HETATM    7  C   UNL     1     -20.583  -5.192  -4.563  1.00  0.00     0.321 C 
HETATM    8  O   UNL     1     -20.186  -4.394  -3.714  1.00  0.00    -0.247 OA
HETATM    9  N   UNL     1     -21.074  -6.443  -4.311  1.00  0.00    -0.308 N 
HETATM   10  H   UNL     1     -20.824  -7.136  -5.003  1.00  0.00     0.170 HD
HETATM   11  H   UNL     1     -20.076  -3.927  -6.013  1.00  0.00     0.164 HD
BRANCH   9  12
HETATM   12  C   UNL     1     -21.280  -6.954  -3.003  1.00  0.00     0.053 A 
HETATM   13  C   UNL     1     -22.170  -6.336  -2.117  1.00  0.00     0.031 A 
HETATM   14  C   UNL     1     -22.376  -6.860  -0.836  1.00  0.00     0.002 A 
HETATM   15  C   UNL     1     -21.683  -7.997  -0.425  1.00  0.00     0.002 A 
HETATM   16  C   UNL     1     -20.796  -8.625  -1.299  1.00  0.00     0.021 A 
HETATM   17  C   UNL     1     -20.610  -8.116  -2.589  1.00  0.00     0.037 A 
HETATM   18 BR   UNL     1     -19.366  -8.996  -3.726  1.00  0.00    -0.049 Br
ENDBRANCH   9  12
ENDBRANCH   1   6
BRANCH   4  19
HETATM   19  C   UNL     1     -22.165  -3.486  -9.950  1.00  0.00     0.102 A 
HETATM   20  C   UNL     1     -23.534  -3.716 -10.077  1.00  0.00     0.049 A 
HETATM   21  C   UNL     1     -24.223  -3.289 -11.217  1.00  0.00     0.021 A 
HETATM   22  C   UNL     1     -23.537  -2.626 -12.230  1.00  0.00     0.063 A 
HETATM   23  C   UNL     1     -22.183  -2.417 -12.029  1.00  0.00     0.106 A 
HETATM   24  N   UNL     1     -21.502  -2.836 -10.934  1.00  0.00    -0.352 N 
ATOM     25  HN  UNL     1     -20.500  -2.663 -10.853  1.00  0.00     0.166 HD
BRANCH  22  26
HETATM   26  C   UNL     1     -24.184  -2.166 -13.497  1.00  0.00     0.418 C 
HETATM   27  F   UNL     1     -25.521  -1.936 -13.371  1.00  0.00    -0.166 F 
HETATM   28  F   UNL     1     -23.651  -1.005 -13.967  1.00  0.00    -0.166 F 
HETATM   29  F   UNL     1     -24.057  -3.070 -14.507  1.00  0.00    -0.166 F 
ENDBRANCH  22  26
ENDBRANCH   4  19
TORSDOF 4
ENDMDL
MODEL 9
REMARK VINA RESULT:      -7.5     18.433     20.191
REMARK  4 active torsions:
REMARK  status: ('A' for Active; 'I' for Inactive)
REMARK       I    between atoms: C_2  and  N_3 
REMARK       I    between atoms: C_2  and  N_11 
REMARK    1  A    between atoms: N_3  and  C_4 
REMARK    2  A    between atoms: N_11  and  C_12 
REMARK    3  A    between atoms: N_15  and  C_16 
REMARK    4  A    between atoms: C_19  and  C_20 
ROOT
HETATM    1  C   UNL     1     -20.839   9.372   3.113  1.00  0.00     0.105 C 
HETATM    2  C   UNL     1     -21.105   9.261   4.611  1.00  0.00     0.046 C 
HETATM    3  C   UNL     1     -20.061  10.173   5.252  1.00  0.00     0.126 C 
HETATM    4  N   UNL     1     -18.926  10.129   4.339  1.00  0.00    -0.365 N 
HETATM    5  C   UNL     1     -19.308   9.575   3.036  1.00  0.00     0.149 C 
ENDROOT
BRANCH   1   6
HETATM    6  N   UNL     1     -21.595  10.467   2.513  1.00  0.00    -0.337 N 
HETATM    7  C   UNL     1     -22.817  10.409   1.906  1.00  0.00     0.321 C 
HETATM    8  O   UNL     1     -23.171  11.359   1.207  1.00  0.00    -0.247 OA
HETATM    9  N   UNL     1     -23.560   9.290   2.162  1.00  0.00    -0.308 N 
HETATM   10  H   UNL     1     -23.449   8.922   3.096  1.00  0.00     0.170 HD
HETATM   11  H   UNL     1     -21.116  11.344   2.344  1.00  0.00     0.164 HD
BRANCH   9  12
HETATM   12  C   UNL     1     -24.822   9.035   1.566  1.00  0.00     0.053 A 
HETATM   13  C   UNL     1     -26.009   9.451   2.181  1.00  0.00     0.031 A 
HETATM   14  C   UNL     1     -27.246   9.206   1.574  1.00  0.00     0.002 A 
HETATM   15  C   UNL     1     -27.308   8.531   0.357  1.00  0.00     0.002 A 
HETATM   16  C   UNL     1     -26.133   8.115  -0.268  1.00  0.00     0.021 A 
HETATM   17  C   UNL     1     -24.895   8.383   0.326  1.00  0.00     0.037 A 
HETATM   18 BR   UNL     1     -23.328   7.764  -0.556  1.00  0.00    -0.049 Br
ENDBRANCH   9  12
ENDBRANCH   1   6
BRANCH   4  19
HETATM   19  C   UNL     1     -17.628   9.961   4.782  1.00  0.00     0.102 A 
HETATM   20  C   UNL     1     -16.852  11.044   5.193  1.00  0.00     0.049 A 
HETATM   21  C   UNL     1     -15.520  10.857   5.579  1.00  0.00     0.021 A 
HETATM   22  C   UNL     1     -14.969   9.580   5.556  1.00  0.00     0.063 A 
HETATM   23  C   UNL     1     -15.802   8.550   5.154  1.00  0.00     0.106 A 
HETATM   24  N   UNL     1     -17.091   8.720   4.767  1.00  0.00    -0.352 N 
ATOM     25  HN  UNL     1     -17.649   7.920   4.468  1.00  0.00     0.166 HD
BRANCH  22  26
HETATM   26  C   UNL     1     -13.546   9.293   5.917  1.00  0.00     0.418 C 
HETATM   27  F   UNL     1     -12.711   9.250   4.842  1.00  0.00    -0.166 F 
HETATM   28  F   UNL     1     -13.020  10.225   6.759  1.00  0.00    -0.166 F 
HETATM   29  F   UNL     1     -13.399   8.095   6.549  1.00  0.00    -0.166 F 
ENDBRANCH  22  26
ENDBRANCH   4  19
TORSDOF 4
ENDMDL
