MODEL 1
REMARK VINA RESULT:      -7.6      0.000      0.000
REMARK  22 active torsions:
REMARK  status: ('A' for Active; 'I' for Inactive)
REMARK    1  A    between atoms: C_2  and  C_3 
REMARK    2  A    between atoms: C_3  and  C_4 
REMARK    3  A    between atoms: C_4  and  C_5 
REMARK    4  A    between atoms: C_5  and  C_6 
REMARK    5  A    between atoms: C_6  and  C_7 
REMARK    6  A    between atoms: C_7  and  C_8 
REMARK    7  A    between atoms: C_7  and  C_31 
REMARK    8  A    between atoms: C_8  and  C_9 
REMARK    9  A    between atoms: C_10  and  C_11 
REMARK   10  A    between atoms: C_11  and  C_12 
REMARK   11  A    between atoms: C_12  and  C_13 
REMARK   12  A    between atoms: C_13  and  C_14 
REMARK   13  A    between atoms: C_14  and  C_15 
REMARK   14  A    between atoms: C_15  and  C_16 
REMARK   15  A    between atoms: C_16  and  C_17 
REMARK   16  A    between atoms: C_17  and  C_18 
REMARK       I    between atoms: C_18  and  N_20 
REMARK   17  A    between atoms: N_20  and  C_21 
REMARK   18  A    between atoms: C_21  and  C_22 
REMARK   19  A    between atoms: C_25  and  O_26 
REMARK   20  A    between atoms: C_27  and  O_28 
REMARK   21  A    between atoms: C_31  and  C_33 
REMARK   22  A    between atoms: C_33  and  C_34 
ROOT
HETATM    1  C   UNL     1     -21.722  -8.692   1.201  1.00  0.00     0.004 C 
ENDROOT
BRANCH   1   2
HETATM    2  C   UNL     1     -22.542  -7.822   0.252  1.00  0.00     0.027 C 
BRANCH   2   3
HETATM    3  C   UNL     1     -21.738  -7.257  -0.875  1.00  0.00    -0.031 C 
HETATM    4  C   UNL     1     -22.294  -6.509  -1.835  1.00  0.00    -0.030 C 
BRANCH   4   5
HETATM    5  C   UNL     1     -21.604  -6.144  -3.115  1.00  0.00     0.039 C 
BRANCH   5   6
HETATM    6  C   UNL     1     -21.294  -7.390  -3.970  1.00  0.00     0.059 C 
BRANCH   6   7
HETATM    7  C   UNL     1     -20.173  -8.277  -3.373  1.00  0.00     0.012 C 
BRANCH   7   8
HETATM    8  C   UNL     1     -20.515  -9.754  -3.176  1.00  0.00     0.001 C 
BRANCH   8   9
HETATM    9  C   UNL     1     -21.977 -10.081  -3.473  1.00  0.00     0.000 C 
BRANCH   9  10
HETATM   10  C   UNL     1     -22.421 -11.290  -2.651  1.00  0.00    -0.000 C 
BRANCH  10  11
HETATM   11  C   UNL     1     -23.604 -10.957  -1.748  1.00  0.00    -0.005 C 
HETATM   12  C   UNL     1     -23.951 -12.138  -0.858  1.00  0.00     0.005 C 
ENDBRANCH  10  11
ENDBRANCH   9  10
ENDBRANCH   8   9
ENDBRANCH   7   8
ENDBRANCH   6   7
BRANCH   6  13
HETATM   13  C   UNL     1     -20.913  -7.001  -5.412  1.00  0.00     0.135 C 
HETATM   14  O   UNL     1     -21.062  -7.785  -6.357  1.00  0.00    -0.297 OA
BRANCH  13  15
HETATM   15  C   UNL     1     -20.406  -5.596  -5.675  1.00  0.00     0.117 C 
BRANCH  15  16
HETATM   16  C   UNL     1     -20.842  -5.044  -7.008  1.00  0.00    -0.051 A 
HETATM   17  C   UNL     1     -19.950  -4.994  -8.086  1.00  0.00     0.007 A 
HETATM   18  C   UNL     1     -20.377  -4.541  -9.335  1.00  0.00     0.001 A 
HETATM   19  C   UNL     1     -21.700  -4.139  -9.519  1.00  0.00     0.000 A 
HETATM   20  C   UNL     1     -22.592  -4.177  -8.450  1.00  0.00     0.001 A 
HETATM   21  C   UNL     1     -22.167  -4.625  -7.201  1.00  0.00     0.007 A 
ENDBRANCH  15  16
ENDBRANCH  13  15
ENDBRANCH   6  13
ENDBRANCH   5   6
ENDBRANCH   4   5
ENDBRANCH   2   3
ENDBRANCH   1   2
BRANCH   1  22
HETATM   22  C   UNL     1     -20.841  -9.685   0.439  1.00  0.00     0.000 C 
BRANCH  22  23
HETATM   23  C   UNL     1     -20.997 -11.105   0.979  1.00  0.00     0.000 C 
BRANCH  23  24
HETATM   24  C   UNL     1     -20.241 -12.130   0.151  1.00  0.00     0.000 C 
BRANCH  24  25
HETATM   25  C   UNL     1     -18.886 -11.552  -0.256  1.00  0.00     0.009 C 
BRANCH  25  26
HETATM   26  C   UNL     1     -17.834 -12.643  -0.248  1.00  0.00     0.103 C 
BRANCH  26  27
HETATM   27  C   UNL     1     -16.437 -12.118  -0.497  1.00  0.00     0.217 C 
HETATM   28  O   UNL     1     -15.754 -11.551   0.352  1.00  0.00    -0.274 OA
HETATM   29  N   UNL     1     -15.930 -12.309  -1.753  1.00  0.00    -0.357 N 
HETATM   30  H   UNL     1     -15.011 -11.907  -1.891  1.00  0.00     0.162 HD
BRANCH  29  31
HETATM   31  C   UNL     1     -16.640 -12.834  -2.900  1.00  0.00     0.161 C 
BRANCH  31  32
HETATM   32  C   UNL     1     -17.058 -11.758  -3.872  1.00  0.00    -0.038 A 
HETATM   33  C   UNL     1     -16.507 -10.470  -3.817  1.00  0.00     0.012 A 
HETATM   34  C   UNL     1     -16.879  -9.498  -4.746  1.00  0.00     0.040 A 
HETATM   35  C   UNL     1     -17.800  -9.813  -5.743  1.00  0.00     0.099 A 
HETATM   36  C   UNL     1     -18.374 -11.089  -5.820  1.00  0.00     0.101 A 
HETATM   37  C   UNL     1     -17.993 -12.056  -4.883  1.00  0.00     0.048 A 
BRANCH  35  38
HETATM   38  O   UNL     1     -18.152  -8.864  -6.665  1.00  0.00    -0.358 OA
HETATM   39  H   UNL     1     -17.410  -8.724  -7.273  1.00  0.00     0.217 HD
ENDBRANCH  35  38
BRANCH  36  40
HETATM   40  O   UNL     1     -19.272 -11.290  -6.835  1.00  0.00    -0.353 OA
HETATM   41  C   UNL     1     -19.526 -12.628  -7.233  1.00  0.00     0.210 C 
ENDBRANCH  36  40
ENDBRANCH  31  32
ENDBRANCH  29  31
ENDBRANCH  26  27
ENDBRANCH  25  26
ENDBRANCH  24  25
ENDBRANCH  23  24
ENDBRANCH  22  23
ENDBRANCH   1  22
TORSDOF 22
ENDMDL
MODEL 2
REMARK VINA RESULT:      -7.2      1.697      4.216
REMARK  22 active torsions:
REMARK  status: ('A' for Active; 'I' for Inactive)
REMARK    1  A    between atoms: C_2  and  C_3 
REMARK    2  A    between atoms: C_3  and  C_4 
REMARK    3  A    between atoms: C_4  and  C_5 
REMARK    4  A    between atoms: C_5  and  C_6 
REMARK    5  A    between atoms: C_6  and  C_7 
REMARK    6  A    between atoms: C_7  and  C_8 
REMARK    7  A    between atoms: C_7  and  C_31 
REMARK    8  A    between atoms: C_8  and  C_9 
REMARK    9  A    between atoms: C_10  and  C_11 
REMARK   10  A    between atoms: C_11  and  C_12 
REMARK   11  A    between atoms: C_12  and  C_13 
REMARK   12  A    between atoms: C_13  and  C_14 
REMARK   13  A    between atoms: C_14  and  C_15 
REMARK   14  A    between atoms: C_15  and  C_16 
REMARK   15  A    between atoms: C_16  and  C_17 
REMARK   16  A    between atoms: C_17  and  C_18 
REMARK       I    between atoms: C_18  and  N_20 
REMARK   17  A    between atoms: N_20  and  C_21 
REMARK   18  A    between atoms: C_21  and  C_22 
REMARK   19  A    between atoms: C_25  and  O_26 
REMARK   20  A    between atoms: C_27  and  O_28 
REMARK   21  A    between atoms: C_31  and  C_33 
REMARK   22  A    between atoms: C_33  and  C_34 
ROOT
HETATM    1  C   UNL     1     -23.217  -8.885   0.323  1.00  0.00     0.004 C 
ENDROOT
BRANCH   1   2
HETATM    2  C   UNL     1     -22.913  -7.394   0.202  1.00  0.00     0.027 C 
BRANCH   2   3
HETATM    3  C   UNL     1     -21.902  -7.080  -0.854  1.00  0.00    -0.031 C 
HETATM    4  C   UNL     1     -22.226  -6.412  -1.967  1.00  0.00    -0.030 C 
BRANCH   4   5
HETATM    5  C   UNL     1     -21.333  -6.302  -3.166  1.00  0.00     0.039 C 
BRANCH   5   6
HETATM    6  C   UNL     1     -21.878  -7.118  -4.358  1.00  0.00     0.059 C 
BRANCH   6   7
HETATM    7  C   UNL     1     -21.686  -8.646  -4.189  1.00  0.00     0.012 C 
BRANCH   7   8
HETATM    8  C   UNL     1     -20.244  -9.135  -4.057  1.00  0.00     0.001 C 
BRANCH   8   9
HETATM    9  C   UNL     1     -19.911  -9.666  -2.664  1.00  0.00     0.000 C 
BRANCH   9  10
HETATM   10  C   UNL     1     -18.465  -9.327  -2.307  1.00  0.00    -0.000 C 
BRANCH  10  11
HETATM   11  C   UNL     1     -17.506  -9.665  -3.443  1.00  0.00    -0.005 C 
HETATM   12  C   UNL     1     -16.062  -9.515  -2.991  1.00  0.00     0.005 C 
ENDBRANCH  10  11
ENDBRANCH   9  10
ENDBRANCH   8   9
ENDBRANCH   7   8
ENDBRANCH   6   7
BRANCH   6  13
HETATM   13  C   UNL     1     -21.232  -6.674  -5.684  1.00  0.00     0.135 C 
HETATM   14  O   UNL     1     -21.005  -7.477  -6.597  1.00  0.00    -0.297 OA
BRANCH  13  15
HETATM   15  C   UNL     1     -20.934  -5.201  -5.890  1.00  0.00     0.117 C 
BRANCH  15  16
HETATM   16  C   UNL     1     -21.189  -4.731  -7.299  1.00  0.00    -0.051 A 
HETATM   17  C   UNL     1     -22.466  -4.313  -7.692  1.00  0.00     0.007 A 
HETATM   18  C   UNL     1     -22.683  -3.819  -8.979  1.00  0.00     0.001 A 
HETATM   19  C   UNL     1     -21.625  -3.734  -9.883  1.00  0.00     0.000 A 
HETATM   20  C   UNL     1     -20.353  -4.156  -9.504  1.00  0.00     0.001 A 
HETATM   21  C   UNL     1     -20.135  -4.654  -8.221  1.00  0.00     0.007 A 
ENDBRANCH  15  16
ENDBRANCH  13  15
ENDBRANCH   6  13
ENDBRANCH   5   6
ENDBRANCH   4   5
ENDBRANCH   2   3
ENDBRANCH   1   2
BRANCH   1  22
HETATM   22  C   UNL     1     -21.941  -9.730   0.254  1.00  0.00     0.000 C 
BRANCH  22  23
HETATM   23  C   UNL     1     -22.246 -11.178  -0.120  1.00  0.00     0.000 C 
BRANCH  23  24
HETATM   24  C   UNL     1     -23.533 -11.318  -0.914  1.00  0.00     0.000 C 
BRANCH  24  25
HETATM   25  C   UNL     1     -23.203 -11.376  -2.406  1.00  0.00     0.009 C 
BRANCH  25  26
HETATM   26  C   UNL     1     -22.654 -12.744  -2.762  1.00  0.00     0.103 C 
BRANCH  26  27
HETATM   27  C   UNL     1     -21.575 -12.690  -3.820  1.00  0.00     0.217 C 
HETATM   28  O   UNL     1     -21.746 -12.252  -4.955  1.00  0.00    -0.274 OA
HETATM   29  N   UNL     1     -20.342 -13.160  -3.457  1.00  0.00    -0.357 N 
HETATM   30  H   UNL     1     -19.660 -13.148  -4.204  1.00  0.00     0.162 HD
BRANCH  29  31
HETATM   31  C   UNL     1     -20.005 -13.828  -2.218  1.00  0.00     0.161 C 
BRANCH  31  32
HETATM   32  C   UNL     1     -18.839 -13.186  -1.505  1.00  0.00    -0.038 A 
HETATM   33  C   UNL     1     -19.012 -12.494  -0.299  1.00  0.00     0.012 A 
HETATM   34  C   UNL     1     -17.918 -11.938   0.364  1.00  0.00     0.040 A 
HETATM   35  C   UNL     1     -16.641 -12.079  -0.174  1.00  0.00     0.099 A 
HETATM   36  C   UNL     1     -16.436 -12.759  -1.382  1.00  0.00     0.101 A 
HETATM   37  C   UNL     1     -17.541 -13.313  -2.037  1.00  0.00     0.048 A 
BRANCH  35  38
HETATM   38  O   UNL     1     -15.564 -11.548   0.486  1.00  0.00    -0.358 OA
HETATM   39  H   UNL     1     -15.141 -10.886  -0.081  1.00  0.00     0.217 HD
ENDBRANCH  35  38
BRANCH  36  40
HETATM   40  O   UNL     1     -15.141 -12.835  -1.824  1.00  0.00    -0.353 OA
HETATM   41  C   UNL     1     -14.391 -13.986  -1.471  1.00  0.00     0.210 C 
ENDBRANCH  36  40
ENDBRANCH  31  32
ENDBRANCH  29  31
ENDBRANCH  26  27
ENDBRANCH  25  26
ENDBRANCH  24  25
ENDBRANCH  23  24
ENDBRANCH  22  23
ENDBRANCH   1  22
TORSDOF 22
ENDMDL
MODEL 3
REMARK VINA RESULT:      -7.2      2.346      3.806
REMARK  22 active torsions:
REMARK  status: ('A' for Active; 'I' for Inactive)
REMARK    1  A    between atoms: C_2  and  C_3 
REMARK    2  A    between atoms: C_3  and  C_4 
REMARK    3  A    between atoms: C_4  and  C_5 
REMARK    4  A    between atoms: C_5  and  C_6 
REMARK    5  A    between atoms: C_6  and  C_7 
REMARK    6  A    between atoms: C_7  and  C_8 
REMARK    7  A    between atoms: C_7  and  C_31 
REMARK    8  A    between atoms: C_8  and  C_9 
REMARK    9  A    between atoms: C_10  and  C_11 
REMARK   10  A    between atoms: C_11  and  C_12 
REMARK   11  A    between atoms: C_12  and  C_13 
REMARK   12  A    between atoms: C_13  and  C_14 
REMARK   13  A    between atoms: C_14  and  C_15 
REMARK   14  A    between atoms: C_15  and  C_16 
REMARK   15  A    between atoms: C_16  and  C_17 
REMARK   16  A    between atoms: C_17  and  C_18 
REMARK       I    between atoms: C_18  and  N_20 
REMARK   17  A    between atoms: N_20  and  C_21 
REMARK   18  A    between atoms: C_21  and  C_22 
REMARK   19  A    between atoms: C_25  and  O_26 
REMARK   20  A    between atoms: C_27  and  O_28 
REMARK   21  A    between atoms: C_31  and  C_33 
REMARK   22  A    between atoms: C_33  and  C_34 
ROOT
HETATM    1  C   UNL     1     -23.088  -8.968   0.473  1.00  0.00     0.004 C 
ENDROOT
BRANCH   1   2
HETATM    2  C   UNL     1     -23.038  -7.497   0.072  1.00  0.00     0.027 C 
BRANCH   2   3
HETATM    3  C   UNL     1     -21.996  -7.200  -0.959  1.00  0.00    -0.031 C 
HETATM    4  C   UNL     1     -22.187  -6.282  -1.914  1.00  0.00    -0.030 C 
BRANCH   4   5
HETATM    5  C   UNL     1     -21.304  -6.131  -3.116  1.00  0.00     0.039 C 
BRANCH   5   6
HETATM    6  C   UNL     1     -21.693  -7.119  -4.235  1.00  0.00     0.059 C 
BRANCH   6   7
HETATM    7  C   UNL     1     -21.215  -8.568  -3.964  1.00  0.00     0.012 C 
BRANCH   7   8
HETATM    8  C   UNL     1     -19.720  -8.746  -3.700  1.00  0.00     0.001 C 
BRANCH   8   9
HETATM    9  C   UNL     1     -19.419  -9.477  -2.393  1.00  0.00     0.000 C 
BRANCH   9  10
HETATM   10  C   UNL     1     -18.234 -10.422  -2.582  1.00  0.00    -0.000 C 
BRANCH  10  11
HETATM   11  C   UNL     1     -17.225  -9.872  -3.585  1.00  0.00    -0.005 C 
HETATM   12  C   UNL     1     -15.966  -9.398  -2.877  1.00  0.00     0.005 C 
ENDBRANCH  10  11
ENDBRANCH   9  10
ENDBRANCH   8   9
ENDBRANCH   7   8
ENDBRANCH   6   7
BRANCH   6  13
HETATM   13  C   UNL     1     -21.153  -6.660  -5.603  1.00  0.00     0.135 C 
HETATM   14  O   UNL     1     -21.058  -7.438  -6.559  1.00  0.00    -0.297 OA
BRANCH  13  15
HETATM   15  C   UNL     1     -20.795  -5.197  -5.789  1.00  0.00     0.117 C 
BRANCH  15  16
HETATM   16  C   UNL     1     -21.106  -4.677  -7.169  1.00  0.00    -0.051 A 
HETATM   17  C   UNL     1     -20.091  -4.533  -8.123  1.00  0.00     0.007 A 
HETATM   18  C   UNL     1     -20.395  -4.111  -9.418  1.00  0.00     0.001 A 
HETATM   19  C   UNL     1     -21.715  -3.834  -9.772  1.00  0.00     0.000 A 
HETATM   20  C   UNL     1     -22.729  -3.965  -8.827  1.00  0.00     0.001 A 
HETATM   21  C   UNL     1     -22.428  -4.382  -7.531  1.00  0.00     0.007 A 
ENDBRANCH  15  16
ENDBRANCH  13  15
ENDBRANCH   6  13
ENDBRANCH   5   6
ENDBRANCH   4   5
ENDBRANCH   2   3
ENDBRANCH   1   2
BRANCH   1  22
HETATM   22  C   UNL     1     -21.732  -9.654   0.280  1.00  0.00     0.000 C 
BRANCH  22  23
HETATM   23  C   UNL     1     -21.873 -10.980  -0.464  1.00  0.00     0.000 C 
BRANCH  23  24
HETATM   24  C   UNL     1     -23.286 -11.218  -0.969  1.00  0.00     0.000 C 
BRANCH  24  25
HETATM   25  C   UNL     1     -23.282 -11.223  -2.497  1.00  0.00     0.009 C 
BRANCH  25  26
HETATM   26  C   UNL     1     -22.077 -11.986  -3.011  1.00  0.00     0.103 C 
BRANCH  26  27
HETATM   27  C   UNL     1     -22.436 -13.336  -3.592  1.00  0.00     0.217 C 
HETATM   28  O   UNL     1     -22.606 -14.350  -2.920  1.00  0.00    -0.274 OA
HETATM   29  N   UNL     1     -22.579 -13.395  -4.951  1.00  0.00    -0.357 N 
HETATM   30  H   UNL     1     -22.777 -14.322  -5.304  1.00  0.00     0.162 HD
BRANCH  29  31
HETATM   31  C   UNL     1     -22.287 -12.337  -5.896  1.00  0.00     0.161 C 
BRANCH  31  32
HETATM   32  C   UNL     1     -20.895 -12.433  -6.471  1.00  0.00    -0.038 A 
HETATM   33  C   UNL     1     -19.874 -11.564  -6.060  1.00  0.00     0.012 A 
HETATM   34  C   UNL     1     -18.584 -11.690  -6.576  1.00  0.00     0.040 A 
HETATM   35  C   UNL     1     -18.307 -12.693  -7.502  1.00  0.00     0.099 A 
HETATM   36  C   UNL     1     -19.307 -13.572  -7.938  1.00  0.00     0.101 A 
HETATM   37  C   UNL     1     -20.597 -13.437  -7.413  1.00  0.00     0.048 A 
BRANCH  35  38
HETATM   38  O   UNL     1     -17.036 -12.827  -7.996  1.00  0.00    -0.358 OA
HETATM   39  H   UNL     1     -16.886 -13.754  -8.236  1.00  0.00     0.217 HD
ENDBRANCH  35  38
BRANCH  36  40
HETATM   40  O   UNL     1     -18.927 -14.517  -8.855  1.00  0.00    -0.353 OA
HETATM   41  C   UNL     1     -18.658 -15.826  -8.378  1.00  0.00     0.210 C 
ENDBRANCH  36  40
ENDBRANCH  31  32
ENDBRANCH  29  31
ENDBRANCH  26  27
ENDBRANCH  25  26
ENDBRANCH  24  25
ENDBRANCH  23  24
ENDBRANCH  22  23
ENDBRANCH   1  22
TORSDOF 22
ENDMDL
MODEL 4
REMARK VINA RESULT:      -7.2      1.968      2.806
REMARK  22 active torsions:
REMARK  status: ('A' for Active; 'I' for Inactive)
REMARK    1  A    between atoms: C_2  and  C_3 
REMARK    2  A    between atoms: C_3  and  C_4 
REMARK    3  A    between atoms: C_4  and  C_5 
REMARK    4  A    between atoms: C_5  and  C_6 
REMARK    5  A    between atoms: C_6  and  C_7 
REMARK    6  A    between atoms: C_7  and  C_8 
REMARK    7  A    between atoms: C_7  and  C_31 
REMARK    8  A    between atoms: C_8  and  C_9 
REMARK    9  A    between atoms: C_10  and  C_11 
REMARK   10  A    between atoms: C_11  and  C_12 
REMARK   11  A    between atoms: C_12  and  C_13 
REMARK   12  A    between atoms: C_13  and  C_14 
REMARK   13  A    between atoms: C_14  and  C_15 
REMARK   14  A    between atoms: C_15  and  C_16 
REMARK   15  A    between atoms: C_16  and  C_17 
REMARK   16  A    between atoms: C_17  and  C_18 
REMARK       I    between atoms: C_18  and  N_20 
REMARK   17  A    between atoms: N_20  and  C_21 
REMARK   18  A    between atoms: C_21  and  C_22 
REMARK   19  A    between atoms: C_25  and  O_26 
REMARK   20  A    between atoms: C_27  and  O_28 
REMARK   21  A    between atoms: C_31  and  C_33 
REMARK   22  A    between atoms: C_33  and  C_34 
ROOT
HETATM    1  C   UNL     1     -22.645  -8.978   0.016  1.00  0.00     0.004 C 
ENDROOT
BRANCH   1   2
HETATM    2  C   UNL     1     -22.804  -7.472  -0.173  1.00  0.00     0.027 C 
BRANCH   2   3
HETATM    3  C   UNL     1     -21.805  -6.887  -1.120  1.00  0.00    -0.031 C 
HETATM    4  C   UNL     1     -22.172  -6.320  -2.275  1.00  0.00    -0.030 C 
BRANCH   4   5
HETATM    5  C   UNL     1     -21.215  -5.962  -3.372  1.00  0.00     0.039 C 
BRANCH   5   6
HETATM    6  C   UNL     1     -21.595  -6.642  -4.704  1.00  0.00     0.059 C 
BRANCH   6   7
HETATM    7  C   UNL     1     -21.647  -8.187  -4.607  1.00  0.00     0.012 C 
BRANCH   7   8
HETATM    8  C   UNL     1     -20.411  -8.867  -4.019  1.00  0.00     0.001 C 
BRANCH   8   9
HETATM    9  C   UNL     1     -20.746 -10.061  -3.125  1.00  0.00     0.000 C 
BRANCH   9  10
HETATM   10  C   UNL     1     -22.201 -10.476  -3.329  1.00  0.00    -0.000 C 
BRANCH  10  11
HETATM   11  C   UNL     1     -22.519 -11.792  -2.625  1.00  0.00    -0.005 C 
HETATM   12  C   UNL     1     -23.727 -11.638  -1.715  1.00  0.00     0.005 C 
ENDBRANCH  10  11
ENDBRANCH   9  10
ENDBRANCH   8   9
ENDBRANCH   7   8
ENDBRANCH   6   7
BRANCH   6  13
HETATM   13  C   UNL     1     -20.629  -6.241  -5.835  1.00  0.00     0.135 C 
HETATM   14  O   UNL     1     -20.003  -7.087  -6.484  1.00  0.00    -0.297 OA
BRANCH  13  15
HETATM   15  C   UNL     1     -20.503  -4.774  -6.197  1.00  0.00     0.117 C 
BRANCH  15  16
HETATM   16  C   UNL     1     -21.046  -4.447  -7.564  1.00  0.00    -0.051 A 
HETATM   17  C   UNL     1     -22.424  -4.328  -7.775  1.00  0.00     0.007 A 
HETATM   18  C   UNL     1     -22.918  -3.963  -9.028  1.00  0.00     0.001 A 
HETATM   19  C   UNL     1     -22.038  -3.708 -10.080  1.00  0.00     0.000 A 
HETATM   20  C   UNL     1     -20.666  -3.833  -9.882  1.00  0.00     0.001 A 
HETATM   21  C   UNL     1     -20.170  -4.202  -8.632  1.00  0.00     0.007 A 
ENDBRANCH  15  16
ENDBRANCH  13  15
ENDBRANCH   6  13
ENDBRANCH   5   6
ENDBRANCH   4   5
ENDBRANCH   2   3
ENDBRANCH   1   2
BRANCH   1  22
HETATM   22  C   UNL     1     -21.495  -9.310   0.970  1.00  0.00     0.000 C 
BRANCH  22  23
HETATM   23  C   UNL     1     -20.492 -10.268   0.331  1.00  0.00     0.000 C 
BRANCH  23  24
HETATM   24  C   UNL     1     -20.795 -11.724   0.642  1.00  0.00     0.000 C 
BRANCH  24  25
HETATM   25  C   UNL     1     -19.724 -12.610   0.007  1.00  0.00     0.009 C 
BRANCH  25  26
HETATM   26  C   UNL     1     -18.659 -11.750  -0.643  1.00  0.00     0.103 C 
BRANCH  26  27
HETATM   27  C   UNL     1     -17.267 -12.045  -0.130  1.00  0.00     0.217 C 
HETATM   28  O   UNL     1     -17.033 -12.628   0.926  1.00  0.00    -0.274 OA
HETATM   29  N   UNL     1     -16.227 -11.629  -0.916  1.00  0.00    -0.357 N 
HETATM   30  H   UNL     1     -15.314 -11.806  -0.518  1.00  0.00     0.162 HD
BRANCH  29  31
HETATM   31  C   UNL     1     -16.320 -10.818  -2.111  1.00  0.00     0.161 C 
BRANCH  31  32
HETATM   32  C   UNL     1     -15.512 -11.371  -3.259  1.00  0.00    -0.038 A 
HETATM   33  C   UNL     1     -15.565 -10.792  -4.535  1.00  0.00     0.012 A 
HETATM   34  C   UNL     1     -14.785 -11.295  -5.576  1.00  0.00     0.040 A 
HETATM   35  C   UNL     1     -13.939 -12.377  -5.343  1.00  0.00     0.099 A 
HETATM   36  C   UNL     1     -13.868 -12.982  -4.082  1.00  0.00     0.101 A 
HETATM   37  C   UNL     1     -14.656 -12.469  -3.045  1.00  0.00     0.048 A 
BRANCH  35  38
HETATM   38  O   UNL     1     -13.159 -12.859  -6.361  1.00  0.00    -0.358 OA
HETATM   39  H   UNL     1     -13.730 -13.123  -7.099  1.00  0.00     0.217 HD
ENDBRANCH  35  38
BRANCH  36  40
HETATM   40  O   UNL     1     -13.009 -14.043  -3.964  1.00  0.00    -0.353 OA
HETATM   41  C   UNL     1     -12.606 -14.421  -2.657  1.00  0.00     0.210 C 
ENDBRANCH  36  40
ENDBRANCH  31  32
ENDBRANCH  29  31
ENDBRANCH  26  27
ENDBRANCH  25  26
ENDBRANCH  24  25
ENDBRANCH  23  24
ENDBRANCH  22  23
ENDBRANCH   1  22
TORSDOF 22
ENDMDL
MODEL 5
REMARK VINA RESULT:      -7.1      1.670      2.994
REMARK  22 active torsions:
REMARK  status: ('A' for Active; 'I' for Inactive)
REMARK    1  A    between atoms: C_2  and  C_3 
REMARK    2  A    between atoms: C_3  and  C_4 
REMARK    3  A    between atoms: C_4  and  C_5 
REMARK    4  A    between atoms: C_5  and  C_6 
REMARK    5  A    between atoms: C_6  and  C_7 
REMARK    6  A    between atoms: C_7  and  C_8 
REMARK    7  A    between atoms: C_7  and  C_31 
REMARK    8  A    between atoms: C_8  and  C_9 
REMARK    9  A    between atoms: C_10  and  C_11 
REMARK   10  A    between atoms: C_11  and  C_12 
REMARK   11  A    between atoms: C_12  and  C_13 
REMARK   12  A    between atoms: C_13  and  C_14 
REMARK   13  A    between atoms: C_14  and  C_15 
REMARK   14  A    between atoms: C_15  and  C_16 
REMARK   15  A    between atoms: C_16  and  C_17 
REMARK   16  A    between atoms: C_17  and  C_18 
REMARK       I    between atoms: C_18  and  N_20 
REMARK   17  A    between atoms: N_20  and  C_21 
REMARK   18  A    between atoms: C_21  and  C_22 
REMARK   19  A    between atoms: C_25  and  O_26 
REMARK   20  A    between atoms: C_27  and  O_28 
REMARK   21  A    between atoms: C_31  and  C_33 
REMARK   22  A    between atoms: C_33  and  C_34 
ROOT
HETATM    1  C   UNL     1     -23.336  -8.992   0.221  1.00  0.00     0.004 C 
ENDROOT
BRANCH   1   2
HETATM    2  C   UNL     1     -22.962  -7.513   0.205  1.00  0.00     0.027 C 
BRANCH   2   3
HETATM    3  C   UNL     1     -21.945  -7.172  -0.837  1.00  0.00    -0.031 C 
HETATM    4  C   UNL     1     -22.220  -6.339  -1.848  1.00  0.00    -0.030 C 
BRANCH   4   5
HETATM    5  C   UNL     1     -21.345  -6.170  -3.053  1.00  0.00     0.039 C 
BRANCH   5   6
HETATM    6  C   UNL     1     -21.613  -7.262  -4.109  1.00  0.00     0.059 C 
BRANCH   6   7
HETATM    7  C   UNL     1     -20.900  -8.601  -3.797  1.00  0.00     0.012 C 
BRANCH   7   8
HETATM    8  C   UNL     1     -19.425  -8.688  -4.190  1.00  0.00     0.001 C 
BRANCH   8   9
HETATM    9  C   UNL     1     -18.557  -9.373  -3.136  1.00  0.00     0.000 C 
BRANCH   9  10
HETATM   10  C   UNL     1     -17.221  -9.790  -3.747  1.00  0.00    -0.000 C 
BRANCH  10  11
HETATM   11  C   UNL     1     -16.067  -9.600  -2.770  1.00  0.00    -0.005 C 
HETATM   12  C   UNL     1     -15.516 -10.942  -2.319  1.00  0.00     0.005 C 
ENDBRANCH  10  11
ENDBRANCH   9  10
ENDBRANCH   8   9
ENDBRANCH   7   8
ENDBRANCH   6   7
BRANCH   6  13
HETATM   13  C   UNL     1     -21.205  -6.792  -5.519  1.00  0.00     0.135 C 
HETATM   14  O   UNL     1     -21.270  -7.544  -6.498  1.00  0.00    -0.297 OA
BRANCH  13  15
HETATM   15  C   UNL     1     -20.781  -5.348  -5.709  1.00  0.00     0.117 C 
BRANCH  15  16
HETATM   16  C   UNL     1     -21.074  -4.815  -7.088  1.00  0.00    -0.051 A 
HETATM   17  C   UNL     1     -20.067  -4.757  -8.059  1.00  0.00     0.007 A 
HETATM   18  C   UNL     1     -20.359  -4.323  -9.353  1.00  0.00     0.001 A 
HETATM   19  C   UNL     1     -21.659  -3.948  -9.688  1.00  0.00     0.000 A 
HETATM   20  C   UNL     1     -22.665  -3.993  -8.726  1.00  0.00     0.001 A 
HETATM   21  C   UNL     1     -22.375  -4.423  -7.432  1.00  0.00     0.007 A 
ENDBRANCH  15  16
ENDBRANCH  13  15
ENDBRANCH   6  13
ENDBRANCH   5   6
ENDBRANCH   4   5
ENDBRANCH   2   3
ENDBRANCH   1   2
BRANCH   1  22
HETATM   22  C   UNL     1     -22.423  -9.817  -0.690  1.00  0.00     0.000 C 
BRANCH  22  23
HETATM   23  C   UNL     1     -22.160 -11.207  -0.114  1.00  0.00     0.000 C 
BRANCH  23  24
HETATM   24  C   UNL     1     -20.879 -11.268   0.699  1.00  0.00     0.000 C 
BRANCH  24  25
HETATM   25  C   UNL     1     -19.679 -11.286  -0.248  1.00  0.00     0.009 C 
BRANCH  25  26
HETATM   26  C   UNL     1     -18.811 -12.496   0.038  1.00  0.00     0.103 C 
BRANCH  26  27
HETATM   27  C   UNL     1     -19.478 -13.802  -0.331  1.00  0.00     0.217 C 
HETATM   28  O   UNL     1     -20.102 -14.504   0.461  1.00  0.00    -0.274 OA
HETATM   29  N   UNL     1     -19.365 -14.196  -1.637  1.00  0.00    -0.357 N 
HETATM   30  H   UNL     1     -19.787 -15.094  -1.833  1.00  0.00     0.162 HD
BRANCH  29  31
HETATM   31  C   UNL     1     -18.562 -13.565  -2.661  1.00  0.00     0.161 C 
BRANCH  31  32
HETATM   32  C   UNL     1     -19.392 -12.944  -3.759  1.00  0.00    -0.038 A 
HETATM   33  C   UNL     1     -20.738 -12.610  -3.554  1.00  0.00     0.012 A 
HETATM   34  C   UNL     1     -21.481 -12.005  -4.569  1.00  0.00     0.040 A 
HETATM   35  C   UNL     1     -20.877 -11.724  -5.792  1.00  0.00     0.099 A 
HETATM   36  C   UNL     1     -19.536 -12.053  -6.029  1.00  0.00     0.101 A 
HETATM   37  C   UNL     1     -18.801 -12.659  -5.005  1.00  0.00     0.048 A 
BRANCH  35  38
HETATM   38  O   UNL     1     -21.602 -11.114  -6.782  1.00  0.00    -0.358 OA
HETATM   39  H   UNL     1     -21.446 -10.158  -6.744  1.00  0.00     0.217 HD
ENDBRANCH  35  38
BRANCH  36  40
HETATM   40  O   UNL     1     -19.043 -11.738  -7.269  1.00  0.00    -0.353 OA
HETATM   41  C   UNL     1     -17.814 -12.330  -7.658  1.00  0.00     0.210 C 
ENDBRANCH  36  40
ENDBRANCH  31  32
ENDBRANCH  29  31
ENDBRANCH  26  27
ENDBRANCH  25  26
ENDBRANCH  24  25
ENDBRANCH  23  24
ENDBRANCH  22  23
ENDBRANCH   1  22
TORSDOF 22
ENDMDL
MODEL 6
REMARK VINA RESULT:      -6.9      2.222      3.602
REMARK  22 active torsions:
REMARK  status: ('A' for Active; 'I' for Inactive)
REMARK    1  A    between atoms: C_2  and  C_3 
REMARK    2  A    between atoms: C_3  and  C_4 
REMARK    3  A    between atoms: C_4  and  C_5 
REMARK    4  A    between atoms: C_5  and  C_6 
REMARK    5  A    between atoms: C_6  and  C_7 
REMARK    6  A    between atoms: C_7  and  C_8 
REMARK    7  A    between atoms: C_7  and  C_31 
REMARK    8  A    between atoms: C_8  and  C_9 
REMARK    9  A    between atoms: C_10  and  C_11 
REMARK   10  A    between atoms: C_11  and  C_12 
REMARK   11  A    between atoms: C_12  and  C_13 
REMARK   12  A    between atoms: C_13  and  C_14 
REMARK   13  A    between atoms: C_14  and  C_15 
REMARK   14  A    between atoms: C_15  and  C_16 
REMARK   15  A    between atoms: C_16  and  C_17 
REMARK   16  A    between atoms: C_17  and  C_18 
REMARK       I    between atoms: C_18  and  N_20 
REMARK   17  A    between atoms: N_20  and  C_21 
REMARK   18  A    between atoms: C_21  and  C_22 
REMARK   19  A    between atoms: C_25  and  O_26 
REMARK   20  A    between atoms: C_27  and  O_28 
REMARK   21  A    between atoms: C_31  and  C_33 
REMARK   22  A    between atoms: C_33  and  C_34 
ROOT
HETATM    1  C   UNL     1     -21.990  -8.227   0.605  1.00  0.00     0.004 C 
ENDROOT
BRANCH   1   2
HETATM    2  C   UNL     1     -22.706  -7.268  -0.341  1.00  0.00     0.027 C 
BRANCH   2   3
HETATM    3  C   UNL     1     -21.786  -6.587  -1.302  1.00  0.00    -0.031 C 
HETATM    4  C   UNL     1     -22.128  -6.372  -2.578  1.00  0.00    -0.030 C 
BRANCH   4   5
HETATM    5  C   UNL     1     -21.162  -5.943  -3.641  1.00  0.00     0.039 C 
BRANCH   5   6
HETATM    6  C   UNL     1     -21.265  -6.835  -4.896  1.00  0.00     0.059 C 
BRANCH   6   7
HETATM    7  C   UNL     1     -20.896  -8.315  -4.624  1.00  0.00     0.012 C 
BRANCH   7   8
HETATM    8  C   UNL     1     -19.504  -8.568  -4.046  1.00  0.00     0.001 C 
BRANCH   8   9
HETATM    9  C   UNL     1     -19.533  -9.158  -2.637  1.00  0.00     0.000 C 
BRANCH   9  10
HETATM   10  C   UNL     1     -18.393 -10.160  -2.465  1.00  0.00    -0.000 C 
BRANCH  10  11
HETATM   11  C   UNL     1     -17.068  -9.603  -2.973  1.00  0.00    -0.005 C 
HETATM   12  C   UNL     1     -15.902 -10.424  -2.446  1.00  0.00     0.005 C 
ENDBRANCH  10  11
ENDBRANCH   9  10
ENDBRANCH   8   9
ENDBRANCH   7   8
ENDBRANCH   6   7
BRANCH   6  13
HETATM   13  C   UNL     1     -20.382  -6.299  -6.040  1.00  0.00     0.135 C 
HETATM   14  O   UNL     1     -19.691  -7.053  -6.735  1.00  0.00    -0.297 OA
BRANCH  13  15
HETATM   15  C   UNL     1     -20.422  -4.816  -6.355  1.00  0.00     0.117 C 
BRANCH  15  16
HETATM   16  C   UNL     1     -21.198  -4.492  -7.606  1.00  0.00    -0.051 A 
HETATM   17  C   UNL     1     -22.595  -4.409  -7.578  1.00  0.00     0.007 A 
HETATM   18  C   UNL     1     -23.304  -4.047  -8.724  1.00  0.00     0.001 A 
HETATM   19  C   UNL     1     -22.622  -3.759  -9.906  1.00  0.00     0.000 A 
HETATM   20  C   UNL     1     -21.234  -3.847  -9.946  1.00  0.00     0.001 A 
HETATM   21  C   UNL     1     -20.523  -4.214  -8.804  1.00  0.00     0.007 A 
ENDBRANCH  15  16
ENDBRANCH  13  15
ENDBRANCH   6  13
ENDBRANCH   5   6
ENDBRANCH   4   5
ENDBRANCH   2   3
ENDBRANCH   1   2
BRANCH   1  22
HETATM   22  C   UNL     1     -21.928  -9.646   0.033  1.00  0.00     0.000 C 
BRANCH  22  23
HETATM   23  C   UNL     1     -20.905 -10.506   0.771  1.00  0.00     0.000 C 
BRANCH  23  24
HETATM   24  C   UNL     1     -20.647 -11.832   0.075  1.00  0.00     0.000 C 
BRANCH  24  25
HETATM   25  C   UNL     1     -21.500 -12.919   0.728  1.00  0.00     0.009 C 
BRANCH  25  26
HETATM   26  C   UNL     1     -22.030 -13.866  -0.331  1.00  0.00     0.103 C 
BRANCH  26  27
HETATM   27  C   UNL     1     -23.005 -13.205  -1.280  1.00  0.00     0.217 C 
HETATM   28  O   UNL     1     -24.035 -12.638  -0.924  1.00  0.00    -0.274 OA
HETATM   29  N   UNL     1     -22.688 -13.255  -2.610  1.00  0.00    -0.357 N 
HETATM   30  H   UNL     1     -23.385 -12.840  -3.215  1.00  0.00     0.162 HD
BRANCH  29  31
HETATM   31  C   UNL     1     -21.595 -13.990  -3.210  1.00  0.00     0.161 C 
BRANCH  31  32
HETATM   32  C   UNL     1     -20.831 -13.178  -4.228  1.00  0.00    -0.038 A 
HETATM   33  C   UNL     1     -21.489 -12.314  -5.114  1.00  0.00     0.012 A 
HETATM   34  C   UNL     1     -20.765 -11.546  -6.025  1.00  0.00     0.040 A 
HETATM   35  C   UNL     1     -19.374 -11.631  -6.048  1.00  0.00     0.099 A 
HETATM   36  C   UNL     1     -18.688 -12.491  -5.180  1.00  0.00     0.101 A 
HETATM   37  C   UNL     1     -19.426 -13.257  -4.271  1.00  0.00     0.048 A 
BRANCH  35  38
HETATM   38  O   UNL     1     -18.662 -10.863  -6.931  1.00  0.00    -0.358 OA
HETATM   39  H   UNL     1     -18.895  -9.932  -6.798  1.00  0.00     0.217 HD
ENDBRANCH  35  38
BRANCH  36  40
HETATM   40  O   UNL     1     -17.322 -12.502  -5.291  1.00  0.00    -0.353 OA
HETATM   41  C   UNL     1     -16.729 -13.575  -6.005  1.00  0.00     0.210 C 
ENDBRANCH  36  40
ENDBRANCH  31  32
ENDBRANCH  29  31
ENDBRANCH  26  27
ENDBRANCH  25  26
ENDBRANCH  24  25
ENDBRANCH  23  24
ENDBRANCH  22  23
ENDBRANCH   1  22
TORSDOF 22
ENDMDL
MODEL 7
REMARK VINA RESULT:      -6.7      2.871      7.665
REMARK  22 active torsions:
REMARK  status: ('A' for Active; 'I' for Inactive)
REMARK    1  A    between atoms: C_2  and  C_3 
REMARK    2  A    between atoms: C_3  and  C_4 
REMARK    3  A    between atoms: C_4  and  C_5 
REMARK    4  A    between atoms: C_5  and  C_6 
REMARK    5  A    between atoms: C_6  and  C_7 
REMARK    6  A    between atoms: C_7  and  C_8 
REMARK    7  A    between atoms: C_7  and  C_31 
REMARK    8  A    between atoms: C_8  and  C_9 
REMARK    9  A    between atoms: C_10  and  C_11 
REMARK   10  A    between atoms: C_11  and  C_12 
REMARK   11  A    between atoms: C_12  and  C_13 
REMARK   12  A    between atoms: C_13  and  C_14 
REMARK   13  A    between atoms: C_14  and  C_15 
REMARK   14  A    between atoms: C_15  and  C_16 
REMARK   15  A    between atoms: C_16  and  C_17 
REMARK   16  A    between atoms: C_17  and  C_18 
REMARK       I    between atoms: C_18  and  N_20 
REMARK   17  A    between atoms: N_20  and  C_21 
REMARK   18  A    between atoms: C_21  and  C_22 
REMARK   19  A    between atoms: C_25  and  O_26 
REMARK   20  A    between atoms: C_27  and  O_28 
REMARK   21  A    between atoms: C_31  and  C_33 
REMARK   22  A    between atoms: C_33  and  C_34 
ROOT
HETATM    1  C   UNL     1     -21.739  -9.151   0.205  1.00  0.00     0.004 C 
ENDROOT
BRANCH   1   2
HETATM    2  C   UNL     1     -23.185  -9.578  -0.027  1.00  0.00     0.027 C 
BRANCH   2   3
HETATM    3  C   UNL     1     -23.356 -11.060  -0.126  1.00  0.00    -0.031 C 
HETATM    4  C   UNL     1     -22.652 -11.906   0.635  1.00  0.00    -0.030 C 
BRANCH   4   5
HETATM    5  C   UNL     1     -22.583 -13.385   0.398  1.00  0.00     0.039 C 
BRANCH   5   6
HETATM    6  C   UNL     1     -21.368 -13.766  -0.473  1.00  0.00     0.059 C 
BRANCH   6   7
HETATM    7  C   UNL     1     -20.410 -12.577  -0.736  1.00  0.00     0.012 C 
BRANCH   7   8
HETATM    8  C   UNL     1     -19.178 -12.880  -1.590  1.00  0.00     0.001 C 
BRANCH   8   9
HETATM    9  C   UNL     1     -18.217 -11.698  -1.705  1.00  0.00     0.000 C 
BRANCH   9  10
HETATM   10  C   UNL     1     -18.941 -10.488  -2.293  1.00  0.00    -0.000 C 
BRANCH  10  11
HETATM   11  C   UNL     1     -18.033  -9.674  -3.208  1.00  0.00    -0.005 C 
HETATM   12  C   UNL     1     -16.587  -9.760  -2.747  1.00  0.00     0.005 C 
ENDBRANCH  10  11
ENDBRANCH   9  10
ENDBRANCH   8   9
ENDBRANCH   7   8
ENDBRANCH   6   7
BRANCH   6  13
HETATM   13  C   UNL     1     -21.810 -14.363  -1.823  1.00  0.00     0.135 C 
HETATM   14  O   UNL     1     -21.370 -15.445  -2.229  1.00  0.00    -0.297 OA
BRANCH  13  15
HETATM   15  C   UNL     1     -22.863 -13.631  -2.632  1.00  0.00     0.117 C 
BRANCH  15  16
HETATM   16  C   UNL     1     -22.285 -12.625  -3.594  1.00  0.00    -0.051 A 
HETATM   17  C   UNL     1     -22.570 -11.261  -3.456  1.00  0.00     0.007 A 
HETATM   18  C   UNL     1     -21.982 -10.327  -4.311  1.00  0.00     0.001 A 
HETATM   19  C   UNL     1     -21.100 -10.748  -5.305  1.00  0.00     0.000 A 
HETATM   20  C   UNL     1     -20.817 -12.103  -5.455  1.00  0.00     0.001 A 
HETATM   21  C   UNL     1     -21.407 -13.038  -4.606  1.00  0.00     0.007 A 
ENDBRANCH  15  16
ENDBRANCH  13  15
ENDBRANCH   6  13
ENDBRANCH   5   6
ENDBRANCH   4   5
ENDBRANCH   2   3
ENDBRANCH   1   2
BRANCH   1  22
HETATM   22  C   UNL     1     -21.279  -8.125  -0.835  1.00  0.00     0.000 C 
BRANCH  22  23
HETATM   23  C   UNL     1     -22.252  -6.953  -0.937  1.00  0.00     0.000 C 
BRANCH  23  24
HETATM   24  C   UNL     1     -22.178  -6.249  -2.281  1.00  0.00     0.000 C 
BRANCH  24  25
HETATM   25  C   UNL     1     -21.198  -6.993  -3.189  1.00  0.00     0.009 C 
BRANCH  25  26
HETATM   26  C   UNL     1     -21.590  -6.803  -4.641  1.00  0.00     0.103 C 
BRANCH  26  27
HETATM   27  C   UNL     1     -20.417  -6.910  -5.589  1.00  0.00     0.217 C 
HETATM   28  O   UNL     1     -19.622  -7.847  -5.595  1.00  0.00    -0.274 OA
HETATM   29  N   UNL     1     -20.264  -5.889  -6.486  1.00  0.00    -0.357 N 
HETATM   30  H   UNL     1     -19.444  -5.977  -7.073  1.00  0.00     0.162 HD
BRANCH  29  31
HETATM   31  C   UNL     1     -21.022  -4.657  -6.529  1.00  0.00     0.161 C 
BRANCH  31  32
HETATM   32  C   UNL     1     -21.224  -4.141  -7.933  1.00  0.00    -0.038 A 
HETATM   33  C   UNL     1     -20.144  -3.974  -8.811  1.00  0.00     0.012 A 
HETATM   34  C   UNL     1     -20.353  -3.529 -10.117  1.00  0.00     0.040 A 
HETATM   35  C   UNL     1     -21.647  -3.257 -10.554  1.00  0.00     0.099 A 
HETATM   36  C   UNL     1     -22.747  -3.408  -9.698  1.00  0.00     0.101 A 
HETATM   37  C   UNL     1     -22.524  -3.855  -8.391  1.00  0.00     0.048 A 
BRANCH  35  38
HETATM   38  O   UNL     1     -21.854  -2.838 -11.842  1.00  0.00    -0.358 OA
HETATM   39  H   UNL     1     -21.822  -3.605 -12.433  1.00  0.00     0.217 HD
ENDBRANCH  35  38
BRANCH  36  40
HETATM   40  O   UNL     1     -23.974  -3.108 -10.228  1.00  0.00    -0.353 OA
HETATM   41  C   UNL     1     -25.119  -3.637  -9.576  1.00  0.00     0.210 C 
ENDBRANCH  36  40
ENDBRANCH  31  32
ENDBRANCH  29  31
ENDBRANCH  26  27
ENDBRANCH  25  26
ENDBRANCH  24  25
ENDBRANCH  23  24
ENDBRANCH  22  23
ENDBRANCH   1  22
TORSDOF 22
ENDMDL
MODEL 8
REMARK VINA RESULT:      -6.7      2.455      7.095
REMARK  22 active torsions:
REMARK  status: ('A' for Active; 'I' for Inactive)
REMARK    1  A    between atoms: C_2  and  C_3 
REMARK    2  A    between atoms: C_3  and  C_4 
REMARK    3  A    between atoms: C_4  and  C_5 
REMARK    4  A    between atoms: C_5  and  C_6 
REMARK    5  A    between atoms: C_6  and  C_7 
REMARK    6  A    between atoms: C_7  and  C_8 
REMARK    7  A    between atoms: C_7  and  C_31 
REMARK    8  A    between atoms: C_8  and  C_9 
REMARK    9  A    between atoms: C_10  and  C_11 
REMARK   10  A    between atoms: C_11  and  C_12 
REMARK   11  A    between atoms: C_12  and  C_13 
REMARK   12  A    between atoms: C_13  and  C_14 
REMARK   13  A    between atoms: C_14  and  C_15 
REMARK   14  A    between atoms: C_15  and  C_16 
REMARK   15  A    between atoms: C_16  and  C_17 
REMARK   16  A    between atoms: C_17  and  C_18 
REMARK       I    between atoms: C_18  and  N_20 
REMARK   17  A    between atoms: N_20  and  C_21 
REMARK   18  A    between atoms: C_21  and  C_22 
REMARK   19  A    between atoms: C_25  and  O_26 
REMARK   20  A    between atoms: C_27  and  O_28 
REMARK   21  A    between atoms: C_31  and  C_33 
REMARK   22  A    between atoms: C_33  and  C_34 
ROOT
HETATM    1  C   UNL     1     -22.124  -9.307   0.570  1.00  0.00     0.004 C 
ENDROOT
BRANCH   1   2
HETATM    2  C   UNL     1     -23.392  -9.856  -0.075  1.00  0.00     0.027 C 
BRANCH   2   3
HETATM    3  C   UNL     1     -23.131 -10.965  -1.044  1.00  0.00    -0.031 C 
HETATM    4  C   UNL     1     -22.398 -10.782  -2.149  1.00  0.00    -0.030 C 
BRANCH   4   5
HETATM    5  C   UNL     1     -22.325 -11.768  -3.276  1.00  0.00     0.039 C 
BRANCH   5   6
HETATM    6  C   UNL     1     -20.881 -11.932  -3.795  1.00  0.00     0.059 C 
BRANCH   6   7
HETATM    7  C   UNL     1     -20.544 -13.386  -4.212  1.00  0.00     0.012 C 
BRANCH   7   8
HETATM    8  C   UNL     1     -20.101 -13.586  -5.661  1.00  0.00     0.001 C 
BRANCH   8   9
HETATM    9  C   UNL     1     -18.667 -13.127  -5.923  1.00  0.00     0.000 C 
BRANCH   9  10
HETATM   10  C   UNL     1     -17.739 -13.657  -4.832  1.00  0.00    -0.000 C 
BRANCH  10  11
HETATM   11  C   UNL     1     -16.271 -13.520  -5.221  1.00  0.00    -0.005 C 
HETATM   12  C   UNL     1     -16.128 -13.305  -6.718  1.00  0.00     0.005 C 
ENDBRANCH  10  11
ENDBRANCH   9  10
ENDBRANCH   8   9
ENDBRANCH   7   8
ENDBRANCH   6   7
BRANCH   6  13
HETATM   13  C   UNL     1     -19.852 -11.457  -2.752  1.00  0.00     0.135 C 
HETATM   14  O   UNL     1     -19.414 -12.216  -1.879  1.00  0.00    -0.297 OA
BRANCH  13  15
HETATM   15  C   UNL     1     -19.317 -10.041  -2.851  1.00  0.00     0.117 C 
BRANCH  15  16
HETATM   16  C   UNL     1     -18.161  -9.904  -3.807  1.00  0.00    -0.051 A 
HETATM   17  C   UNL     1     -16.844 -10.069  -3.362  1.00  0.00     0.007 A 
HETATM   18  C   UNL     1     -15.781 -10.004  -4.264  1.00  0.00     0.001 A 
HETATM   19  C   UNL     1     -16.025  -9.778  -5.618  1.00  0.00     0.000 A 
HETATM   20  C   UNL     1     -17.331  -9.604  -6.068  1.00  0.00     0.001 A 
HETATM   21  C   UNL     1     -18.394  -9.664  -5.169  1.00  0.00     0.007 A 
ENDBRANCH  15  16
ENDBRANCH  13  15
ENDBRANCH   6  13
ENDBRANCH   5   6
ENDBRANCH   4   5
ENDBRANCH   2   3
ENDBRANCH   1   2
BRANCH   1  22
HETATM   22  C   UNL     1     -22.088  -7.777   0.537  1.00  0.00     0.000 C 
BRANCH  22  23
HETATM   23  C   UNL     1     -22.417  -7.237  -0.853  1.00  0.00     0.000 C 
BRANCH  23  24
HETATM   24  C   UNL     1     -21.272  -7.417  -1.835  1.00  0.00     0.000 C 
BRANCH  24  25
HETATM   25  C   UNL     1     -21.273  -6.257  -2.830  1.00  0.00     0.009 C 
BRANCH  25  26
HETATM   26  C   UNL     1     -22.172  -6.585  -4.006  1.00  0.00     0.103 C 
BRANCH  26  27
HETATM   27  C   UNL     1     -21.516  -7.499  -5.016  1.00  0.00     0.217 C 
HETATM   28  O   UNL     1     -21.631  -8.722  -5.013  1.00  0.00    -0.274 OA
HETATM   29  N   UNL     1     -20.759  -6.895  -5.983  1.00  0.00    -0.357 N 
HETATM   30  H   UNL     1     -20.303  -7.543  -6.612  1.00  0.00     0.162 HD
BRANCH  29  31
HETATM   31  C   UNL     1     -20.412  -5.492  -6.055  1.00  0.00     0.161 C 
BRANCH  31  32
HETATM   32  C   UNL     1     -20.815  -4.855  -7.363  1.00  0.00    -0.038 A 
HETATM   33  C   UNL     1     -19.883  -4.647  -8.390  1.00  0.00     0.012 A 
HETATM   34  C   UNL     1     -20.280  -4.089  -9.605  1.00  0.00     0.040 A 
HETATM   35  C   UNL     1     -21.615  -3.743  -9.803  1.00  0.00     0.099 A 
HETATM   36  C   UNL     1     -22.568  -3.933  -8.793  1.00  0.00     0.101 A 
HETATM   37  C   UNL     1     -22.158  -4.493  -7.578  1.00  0.00     0.048 A 
BRANCH  35  38
HETATM   38  O   UNL     1     -22.008  -3.212 -11.003  1.00  0.00    -0.358 OA
HETATM   39  H   UNL     1     -21.798  -2.266 -11.013  1.00  0.00     0.217 HD
ENDBRANCH  35  38
BRANCH  36  40
HETATM   40  O   UNL     1     -23.851  -3.553  -9.090  1.00  0.00    -0.353 OA
HETATM   41  C   UNL     1     -24.644  -4.451  -9.849  1.00  0.00     0.210 C 
ENDBRANCH  36  40
ENDBRANCH  31  32
ENDBRANCH  29  31
ENDBRANCH  26  27
ENDBRANCH  25  26
ENDBRANCH  24  25
ENDBRANCH  23  24
ENDBRANCH  22  23
ENDBRANCH   1  22
TORSDOF 22
ENDMDL
MODEL 9
REMARK VINA RESULT:      -6.7      2.632      8.197
REMARK  22 active torsions:
REMARK  status: ('A' for Active; 'I' for Inactive)
REMARK    1  A    between atoms: C_2  and  C_3 
REMARK    2  A    between atoms: C_3  and  C_4 
REMARK    3  A    between atoms: C_4  and  C_5 
REMARK    4  A    between atoms: C_5  and  C_6 
REMARK    5  A    between atoms: C_6  and  C_7 
REMARK    6  A    between atoms: C_7  and  C_8 
REMARK    7  A    between atoms: C_7  and  C_31 
REMARK    8  A    between atoms: C_8  and  C_9 
REMARK    9  A    between atoms: C_10  and  C_11 
REMARK   10  A    between atoms: C_11  and  C_12 
REMARK   11  A    between atoms: C_12  and  C_13 
REMARK   12  A    between atoms: C_13  and  C_14 
REMARK   13  A    between atoms: C_14  and  C_15 
REMARK   14  A    between atoms: C_15  and  C_16 
REMARK   15  A    between atoms: C_16  and  C_17 
REMARK   16  A    between atoms: C_17  and  C_18 
REMARK       I    between atoms: C_18  and  N_20 
REMARK   17  A    between atoms: N_20  and  C_21 
REMARK   18  A    between atoms: C_21  and  C_22 
REMARK   19  A    between atoms: C_25  and  O_26 
REMARK   20  A    between atoms: C_27  and  O_28 
REMARK   21  A    between atoms: C_31  and  C_33 
REMARK   22  A    between atoms: C_33  and  C_34 
ROOT
HETATM    1  C   UNL     1     -21.200  -8.560   1.240  1.00  0.00     0.004 C 
ENDROOT
BRANCH   1   2
HETATM    2  C   UNL     1     -20.439  -9.778   1.753  1.00  0.00     0.027 C 
BRANCH   2   3
HETATM    3  C   UNL     1     -20.477 -10.939   0.811  1.00  0.00    -0.031 C 
HETATM    4  C   UNL     1     -19.494 -11.170  -0.068  1.00  0.00    -0.030 C 
BRANCH   4   5
HETATM    5  C   UNL     1     -19.598 -12.145  -1.202  1.00  0.00     0.039 C 
BRANCH   5   6
HETATM    6  C   UNL     1     -20.111 -11.466  -2.489  1.00  0.00     0.059 C 
BRANCH   6   7
HETATM    7  C   UNL     1     -19.933  -9.927  -2.480  1.00  0.00     0.012 C 
BRANCH   7   8
HETATM    8  C   UNL     1     -19.046  -9.344  -3.580  1.00  0.00     0.001 C 
BRANCH   8   9
HETATM    9  C   UNL     1     -17.553  -9.465  -3.280  1.00  0.00     0.000 C 
BRANCH   9  10
HETATM   10  C   UNL     1     -16.960 -10.649  -4.042  1.00  0.00    -0.000 C 
BRANCH  10  11
HETATM   11  C   UNL     1     -16.135 -11.553  -3.133  1.00  0.00    -0.005 C 
HETATM   12  C   UNL     1     -15.849 -10.867  -1.807  1.00  0.00     0.005 C 
ENDBRANCH  10  11
ENDBRANCH   9  10
ENDBRANCH   8   9
ENDBRANCH   7   8
ENDBRANCH   6   7
BRANCH   6  13
HETATM   13  C   UNL     1     -21.593 -11.799  -2.748  1.00  0.00     0.135 C 
HETATM   14  O   UNL     1     -22.358 -10.987  -3.281  1.00  0.00    -0.297 OA
BRANCH  13  15
HETATM   15  C   UNL     1     -22.098 -13.186  -2.398  1.00  0.00     0.117 C 
BRANCH  15  16
HETATM   16  C   UNL     1     -22.475 -13.337  -0.947  1.00  0.00    -0.051 A 
HETATM   17  C   UNL     1     -23.346 -12.425  -0.338  1.00  0.00     0.007 A 
HETATM   18  C   UNL     1     -23.742 -12.605   0.988  1.00  0.00     0.001 A 
HETATM   19  C   UNL     1     -23.276 -13.700   1.715  1.00  0.00     0.000 A 
HETATM   20  C   UNL     1     -22.402 -14.606   1.121  1.00  0.00     0.001 A 
HETATM   21  C   UNL     1     -22.001 -14.426  -0.202  1.00  0.00     0.007 A 
ENDBRANCH  15  16
ENDBRANCH  13  15
ENDBRANCH   6  13
ENDBRANCH   5   6
ENDBRANCH   4   5
ENDBRANCH   2   3
ENDBRANCH   1   2
BRANCH   1  22
HETATM   22  C   UNL     1     -22.416  -8.963   0.401  1.00  0.00     0.000 C 
BRANCH  22  23
HETATM   23  C   UNL     1     -22.830  -7.852  -0.561  1.00  0.00     0.000 C 
BRANCH  23  24
HETATM   24  C   UNL     1     -21.638  -7.131  -1.166  1.00  0.00     0.000 C 
BRANCH  24  25
HETATM   25  C   UNL     1     -22.129  -6.142  -2.224  1.00  0.00     0.009 C 
BRANCH  25  26
HETATM   26  C   UNL     1     -21.156  -6.102  -3.387  1.00  0.00     0.103 C 
BRANCH  26  27
HETATM   27  C   UNL     1     -21.640  -6.882  -4.589  1.00  0.00     0.217 C 
HETATM   28  O   UNL     1     -22.179  -7.984  -4.522  1.00  0.00    -0.274 OA
HETATM   29  N   UNL     1     -21.457  -6.293  -5.810  1.00  0.00    -0.357 N 
HETATM   30  H   UNL     1     -21.755  -6.864  -6.591  1.00  0.00     0.162 HD
BRANCH  29  31
HETATM   31  C   UNL     1     -20.728  -5.072  -6.078  1.00  0.00     0.161 C 
BRANCH  31  32
HETATM   32  C   UNL     1     -21.018  -4.505  -7.447  1.00  0.00    -0.038 A 
HETATM   33  C   UNL     1     -20.003  -4.350  -8.402  1.00  0.00     0.012 A 
HETATM   34  C   UNL     1     -20.296  -3.857  -9.674  1.00  0.00     0.040 A 
HETATM   35  C   UNL     1     -21.608  -3.523 -10.000  1.00  0.00     0.099 A 
HETATM   36  C   UNL     1     -22.643  -3.660  -9.065  1.00  0.00     0.101 A 
HETATM   37  C   UNL     1     -22.337  -4.156  -7.792  1.00  0.00     0.048 A 
BRANCH  35  38
HETATM   38  O   UNL     1     -21.897  -3.055 -11.254  1.00  0.00    -0.358 OA
HETATM   39  H   UNL     1     -22.776  -3.371 -11.514  1.00  0.00     0.217 HD
ENDBRANCH  35  38
BRANCH  36  40
HETATM   40  O   UNL     1     -23.895  -3.297  -9.487  1.00  0.00    -0.353 OA
HETATM   41  C   UNL     1     -24.851  -4.328  -9.673  1.00  0.00     0.210 C 
ENDBRANCH  36  40
ENDBRANCH  31  32
ENDBRANCH  29  31
ENDBRANCH  26  27
ENDBRANCH  25  26
ENDBRANCH  24  25
ENDBRANCH  23  24
ENDBRANCH  22  23
ENDBRANCH   1  22
TORSDOF 22
ENDMDL
