MODEL 1
REMARK VINA RESULT:      -7.3      0.000      0.000
REMARK  17 active torsions:
REMARK  status: ('A' for Active; 'I' for Inactive)
REMARK    1  A    between atoms: C_2  and  C_3 
REMARK    2  A    between atoms: C_3  and  C_4 
REMARK    3  A    between atoms: C_4  and  C_5 
REMARK    4  A    between atoms: C_5  and  C_6 
REMARK    5  A    between atoms: C_7  and  C_8 
REMARK    6  A    between atoms: C_8  and  C_9 
REMARK    7  A    between atoms: C_9  and  C_10 
REMARK    8  A    between atoms: C_9  and  O_23 
REMARK    9  A    between atoms: C_11  and  C_12 
REMARK   10  A    between atoms: C_13  and  C_14 
REMARK   11  A    between atoms: C_14  and  C_15 
REMARK   12  A    between atoms: C_16  and  C_17 
REMARK   13  A    between atoms: C_17  and  C_18 
REMARK   14  A    between atoms: C_18  and  C_19 
REMARK   15  A    between atoms: C_19  and  C_20 
REMARK   16  A    between atoms: C_20  and  O_22 
REMARK   17  A    between atoms: O_23  and  O_24 
ROOT
HETATM    1  C   UNL     1     -21.192  -6.004  -5.127  1.00  0.00     0.008 C 
HETATM    2  C   UNL     1     -21.978  -5.537  -6.113  1.00  0.00    -0.002 C 
ENDROOT
BRANCH   1   3
HETATM    3  C   UNL     1     -21.686  -6.896  -4.012  1.00  0.00     0.186 C 
BRANCH   3   4
HETATM    4  C   UNL     1     -21.045  -6.597  -2.636  1.00  0.00     0.066 C 
BRANCH   4   5
HETATM    5  C   UNL     1     -21.482  -7.532  -1.546  1.00  0.00    -0.028 C 
HETATM    6  C   UNL     1     -22.373  -7.199  -0.601  1.00  0.00    -0.031 C 
BRANCH   6   7
HETATM    7  C   UNL     1     -22.910  -8.175   0.403  1.00  0.00     0.027 C 
BRANCH   7   8
HETATM    8  C   UNL     1     -21.851  -9.212   0.794  1.00  0.00     0.004 C 
BRANCH   8   9
HETATM    9  C   UNL     1     -22.140 -10.605   0.221  1.00  0.00    -0.000 C 
BRANCH   9  10
HETATM   10  C   UNL     1     -23.615 -10.768  -0.131  1.00  0.00    -0.005 C 
HETATM   11  C   UNL     1     -23.789 -11.302  -1.542  1.00  0.00     0.005 C 
ENDBRANCH   9  10
ENDBRANCH   8   9
ENDBRANCH   7   8
ENDBRANCH   6   7
ENDBRANCH   4   5
ENDBRANCH   3   4
BRANCH   3  12
HETATM   12  O   UNL     1     -21.346  -8.241  -4.388  1.00  0.00    -0.234 OA
BRANCH  12  13
HETATM   13  O   UNL     1     -19.970  -8.196  -4.870  1.00  0.00    -0.250 OA
HETATM   14  H   UNL     1     -19.956  -9.102  -5.226  1.00  0.00     0.253 HD
ENDBRANCH  12  13
ENDBRANCH   3  12
ENDBRANCH   1   3
BRANCH   2  15
HETATM   15  C   UNL     1     -21.503  -4.681  -7.177  1.00  0.00    -0.004 C 
HETATM   16  C   UNL     1     -21.268  -5.119  -8.426  1.00  0.00    -0.023 C 
BRANCH  16  17
HETATM   17  C   UNL     1     -20.790  -4.249  -9.556  1.00  0.00     0.054 C 
BRANCH  17  18
HETATM   18  C   UNL     1     -21.929  -3.472 -10.160  1.00  0.00    -0.027 C 
HETATM   19  C   UNL     1     -23.209  -3.877 -10.135  1.00  0.00    -0.030 C 
BRANCH  19  20
HETATM   20  C   UNL     1     -24.356  -3.089 -10.706  1.00  0.00     0.027 C 
BRANCH  20  21
HETATM   21  C   UNL     1     -24.380  -3.136 -12.236  1.00  0.00     0.014 C 
BRANCH  21  22
HETATM   22  C   UNL     1     -23.445  -2.107 -12.878  1.00  0.00     0.110 C 
BRANCH  22  23
HETATM   23  C   UNL     1     -23.871  -1.750 -14.282  1.00  0.00     0.139 C 
HETATM   24  O   UNL     1     -23.345  -2.149 -15.308  1.00  0.00    -0.650 OA
BRANCH  23  25
HETATM   25  O   UNL     1     -24.937  -0.915 -14.293  1.00  0.00    -0.776 OA
HETATM   26  H   UNL     1     -25.023  -0.402 -15.119  1.00  0.00     0.167 HD
ENDBRANCH  23  25
ENDBRANCH  22  23
ENDBRANCH  21  22
ENDBRANCH  20  21
ENDBRANCH  19  20
ENDBRANCH  17  18
ENDBRANCH  16  17
ENDBRANCH   2  15
TORSDOF 17
ENDMDL
MODEL 2
REMARK VINA RESULT:      -7.2      3.513     10.380
REMARK  17 active torsions:
REMARK  status: ('A' for Active; 'I' for Inactive)
REMARK    1  A    between atoms: C_2  and  C_3 
REMARK    2  A    between atoms: C_3  and  C_4 
REMARK    3  A    between atoms: C_4  and  C_5 
REMARK    4  A    between atoms: C_5  and  C_6 
REMARK    5  A    between atoms: C_7  and  C_8 
REMARK    6  A    between atoms: C_8  and  C_9 
REMARK    7  A    between atoms: C_9  and  C_10 
REMARK    8  A    between atoms: C_9  and  O_23 
REMARK    9  A    between atoms: C_11  and  C_12 
REMARK   10  A    between atoms: C_13  and  C_14 
REMARK   11  A    between atoms: C_14  and  C_15 
REMARK   12  A    between atoms: C_16  and  C_17 
REMARK   13  A    between atoms: C_17  and  C_18 
REMARK   14  A    between atoms: C_18  and  C_19 
REMARK   15  A    between atoms: C_19  and  C_20 
REMARK   16  A    between atoms: C_20  and  O_22 
REMARK   17  A    between atoms: O_23  and  O_24 
ROOT
HETATM    1  C   UNL     1     -21.062  -7.235  -3.917  1.00  0.00     0.008 C 
HETATM    2  C   UNL     1     -21.497  -6.209  -3.165  1.00  0.00    -0.002 C 
ENDROOT
BRANCH   1   3
HETATM    3  C   UNL     1     -20.350  -7.064  -5.239  1.00  0.00     0.186 C 
BRANCH   3   4
HETATM    4  C   UNL     1     -20.277  -5.598  -5.729  1.00  0.00     0.066 C 
BRANCH   4   5
HETATM    5  C   UNL     1     -20.425  -5.446  -7.215  1.00  0.00    -0.028 C 
HETATM    6  C   UNL     1     -20.417  -4.259  -7.839  1.00  0.00    -0.031 C 
BRANCH   6   7
HETATM    7  C   UNL     1     -20.428  -4.117  -9.332  1.00  0.00     0.027 C 
BRANCH   7   8
HETATM    8  C   UNL     1     -21.801  -4.469  -9.916  1.00  0.00     0.004 C 
BRANCH   8   9
HETATM    9  C   UNL     1     -22.508  -3.263 -10.547  1.00  0.00    -0.000 C 
BRANCH   9  10
HETATM   10  C   UNL     1     -23.999  -3.528 -10.735  1.00  0.00    -0.005 C 
HETATM   11  C   UNL     1     -24.774  -3.247  -9.459  1.00  0.00     0.005 C 
ENDBRANCH   9  10
ENDBRANCH   8   9
ENDBRANCH   7   8
ENDBRANCH   6   7
ENDBRANCH   4   5
ENDBRANCH   3   4
BRANCH   3  12
HETATM   12  O   UNL     1     -21.093  -7.827  -6.203  1.00  0.00    -0.234 OA
BRANCH  12  13
HETATM   13  O   UNL     1     -21.034  -9.216  -5.759  1.00  0.00    -0.250 OA
HETATM   14  H   UNL     1     -20.062  -9.285  -5.771  1.00  0.00     0.253 HD
ENDBRANCH  12  13
ENDBRANCH   3  12
ENDBRANCH   1   3
BRANCH   2  15
HETATM   15  C   UNL     1     -22.180  -6.376  -1.902  1.00  0.00    -0.004 C 
HETATM   16  C   UNL     1     -21.799  -7.266  -0.969  1.00  0.00    -0.023 C 
BRANCH  16  17
HETATM   17  C   UNL     1     -22.479  -7.449   0.359  1.00  0.00     0.054 C 
BRANCH  17  18
HETATM   18  C   UNL     1     -23.368  -8.663   0.350  1.00  0.00    -0.027 C 
HETATM   19  C   UNL     1     -22.977  -9.875  -0.075  1.00  0.00    -0.030 C 
BRANCH  19  20
HETATM   20  C   UNL     1     -23.849 -11.100  -0.054  1.00  0.00     0.027 C 
BRANCH  20  21
HETATM   21  C   UNL     1     -24.129 -11.631  -1.463  1.00  0.00     0.014 C 
BRANCH  21  22
HETATM   22  C   UNL     1     -22.933 -12.371  -2.068  1.00  0.00     0.110 C 
BRANCH  22  23
HETATM   23  C   UNL     1     -22.571 -11.844  -3.436  1.00  0.00     0.139 C 
HETATM   24  O   UNL     1     -22.431 -12.519  -4.444  1.00  0.00    -0.650 OA
BRANCH  23  25
HETATM   25  O   UNL     1     -22.412 -10.499  -3.438  1.00  0.00    -0.776 OA
HETATM   26  H   UNL     1     -21.737 -10.187  -4.070  1.00  0.00     0.167 HD
ENDBRANCH  23  25
ENDBRANCH  22  23
ENDBRANCH  21  22
ENDBRANCH  20  21
ENDBRANCH  19  20
ENDBRANCH  17  18
ENDBRANCH  16  17
ENDBRANCH   2  15
TORSDOF 17
ENDMDL
MODEL 3
REMARK VINA RESULT:      -7.2      2.290      3.703
REMARK  17 active torsions:
REMARK  status: ('A' for Active; 'I' for Inactive)
REMARK    1  A    between atoms: C_2  and  C_3 
REMARK    2  A    between atoms: C_3  and  C_4 
REMARK    3  A    between atoms: C_4  and  C_5 
REMARK    4  A    between atoms: C_5  and  C_6 
REMARK    5  A    between atoms: C_7  and  C_8 
REMARK    6  A    between atoms: C_8  and  C_9 
REMARK    7  A    between atoms: C_9  and  C_10 
REMARK    8  A    between atoms: C_9  and  O_23 
REMARK    9  A    between atoms: C_11  and  C_12 
REMARK   10  A    between atoms: C_13  and  C_14 
REMARK   11  A    between atoms: C_14  and  C_15 
REMARK   12  A    between atoms: C_16  and  C_17 
REMARK   13  A    between atoms: C_17  and  C_18 
REMARK   14  A    between atoms: C_18  and  C_19 
REMARK   15  A    between atoms: C_19  and  C_20 
REMARK   16  A    between atoms: C_20  and  O_22 
REMARK   17  A    between atoms: O_23  and  O_24 
ROOT
HETATM    1  C   UNL     1     -21.387  -9.451  -5.145  1.00  0.00     0.008 C 
HETATM    2  C   UNL     1     -20.450  -8.523  -4.879  1.00  0.00    -0.002 C 
ENDROOT
BRANCH   1   3
HETATM    3  C   UNL     1     -21.477 -10.780  -4.432  1.00  0.00     0.186 C 
BRANCH   3   4
HETATM    4  C   UNL     1     -20.615 -10.867  -3.151  1.00  0.00     0.066 C 
BRANCH   4   5
HETATM    5  C   UNL     1     -21.345 -10.478  -1.898  1.00  0.00    -0.028 C 
HETATM    6  C   UNL     1     -22.663 -10.657  -1.727  1.00  0.00    -0.031 C 
BRANCH   6   7
HETATM    7  C   UNL     1     -23.366 -10.395  -0.429  1.00  0.00     0.027 C 
BRANCH   7   8
HETATM    8  C   UNL     1     -22.636  -9.328   0.395  1.00  0.00     0.004 C 
BRANCH   8   9
HETATM    9  C   UNL     1     -23.051  -7.899   0.022  1.00  0.00    -0.000 C 
BRANCH   9  10
HETATM   10  C   UNL     1     -21.885  -7.120  -0.578  1.00  0.00    -0.005 C 
HETATM   11  C   UNL     1     -22.323  -6.319  -1.792  1.00  0.00     0.005 C 
ENDBRANCH   9  10
ENDBRANCH   8   9
ENDBRANCH   7   8
ENDBRANCH   6   7
ENDBRANCH   4   5
ENDBRANCH   3   4
BRANCH   3  12
HETATM   12  O   UNL     1     -21.009 -11.772  -5.361  1.00  0.00    -0.234 OA
BRANCH  12  13
HETATM   13  O   UNL     1     -21.173 -11.195  -6.691  1.00  0.00    -0.250 OA
HETATM   14  H   UNL     1     -22.125 -11.389  -6.770  1.00  0.00     0.253 HD
ENDBRANCH  12  13
ENDBRANCH   3  12
ENDBRANCH   1   3
BRANCH   2  15
HETATM   15  C   UNL     1     -20.365  -7.254  -5.564  1.00  0.00    -0.004 C 
HETATM   16  C   UNL     1     -20.716  -6.085  -4.998  1.00  0.00    -0.023 C 
BRANCH  16  17
HETATM   17  C   UNL     1     -20.621  -4.749  -5.681  1.00  0.00     0.054 C 
BRANCH  17  18
HETATM   18  C   UNL     1     -20.467  -4.910  -7.169  1.00  0.00    -0.027 C 
HETATM   19  C   UNL     1     -20.962  -4.047  -8.071  1.00  0.00    -0.030 C 
BRANCH  19  20
HETATM   20  C   UNL     1     -20.782  -4.184  -9.558  1.00  0.00     0.027 C 
BRANCH  20  21
HETATM   21  C   UNL     1     -21.984  -3.640 -10.335  1.00  0.00     0.014 C 
BRANCH  21  22
HETATM   22  C   UNL     1     -23.274  -3.642  -9.510  1.00  0.00     0.110 C 
BRANCH  22  23
HETATM   23  C   UNL     1     -24.480  -3.275 -10.341  1.00  0.00     0.139 C 
HETATM   24  O   UNL     1     -24.458  -2.916 -11.507  1.00  0.00    -0.650 OA
BRANCH  23  25
HETATM   25  O   UNL     1     -25.634  -3.388  -9.641  1.00  0.00    -0.776 OA
HETATM   26  H   UNL     1     -26.218  -4.100  -9.964  1.00  0.00     0.167 HD
ENDBRANCH  23  25
ENDBRANCH  22  23
ENDBRANCH  21  22
ENDBRANCH  20  21
ENDBRANCH  19  20
ENDBRANCH  17  18
ENDBRANCH  16  17
ENDBRANCH   2  15
TORSDOF 17
ENDMDL
MODEL 4
REMARK VINA RESULT:      -7.2      3.430     11.965
REMARK  17 active torsions:
REMARK  status: ('A' for Active; 'I' for Inactive)
REMARK    1  A    between atoms: C_2  and  C_3 
REMARK    2  A    between atoms: C_3  and  C_4 
REMARK    3  A    between atoms: C_4  and  C_5 
REMARK    4  A    between atoms: C_5  and  C_6 
REMARK    5  A    between atoms: C_7  and  C_8 
REMARK    6  A    between atoms: C_8  and  C_9 
REMARK    7  A    between atoms: C_9  and  C_10 
REMARK    8  A    between atoms: C_9  and  O_23 
REMARK    9  A    between atoms: C_11  and  C_12 
REMARK   10  A    between atoms: C_13  and  C_14 
REMARK   11  A    between atoms: C_14  and  C_15 
REMARK   12  A    between atoms: C_16  and  C_17 
REMARK   13  A    between atoms: C_17  and  C_18 
REMARK   14  A    between atoms: C_18  and  C_19 
REMARK   15  A    between atoms: C_19  and  C_20 
REMARK   16  A    between atoms: C_20  and  O_22 
REMARK   17  A    between atoms: O_23  and  O_24 
ROOT
HETATM    1  C   UNL     1     -21.329  -7.008  -3.900  1.00  0.00     0.008 C 
HETATM    2  C   UNL     1     -21.503  -6.112  -2.912  1.00  0.00    -0.002 C 
ENDROOT
BRANCH   1   3
HETATM    3  C   UNL     1     -20.576  -6.712  -5.177  1.00  0.00     0.186 C 
BRANCH   3   4
HETATM    4  C   UNL     1     -20.588  -5.220  -5.583  1.00  0.00     0.066 C 
BRANCH   4   5
HETATM    5  C   UNL     1     -20.912  -4.985  -7.030  1.00  0.00    -0.028 C 
HETATM    6  C   UNL     1     -20.030  -4.498  -7.915  1.00  0.00    -0.031 C 
BRANCH   6   7
HETATM    7  C   UNL     1     -20.312  -4.394  -9.384  1.00  0.00     0.027 C 
BRANCH   7   8
HETATM    8  C   UNL     1     -21.815  -4.484  -9.671  1.00  0.00     0.004 C 
BRANCH   8   9
HETATM    9  C   UNL     1     -22.326  -3.332 -10.545  1.00  0.00    -0.000 C 
BRANCH   9  10
HETATM   10  C   UNL     1     -23.838  -3.402 -10.732  1.00  0.00    -0.005 C 
HETATM   11  C   UNL     1     -24.563  -3.315  -9.400  1.00  0.00     0.005 C 
ENDBRANCH   9  10
ENDBRANCH   8   9
ENDBRANCH   7   8
ENDBRANCH   6   7
ENDBRANCH   4   5
ENDBRANCH   3   4
BRANCH   3  12
HETATM   12  O   UNL     1     -21.224  -7.469  -6.214  1.00  0.00    -0.234 OA
BRANCH  12  13
HETATM   13  O   UNL     1     -21.074  -8.873  -5.850  1.00  0.00    -0.250 OA
HETATM   14  H   UNL     1     -20.994  -8.722  -4.891  1.00  0.00     0.253 HD
ENDBRANCH  12  13
ENDBRANCH   3  12
ENDBRANCH   1   3
BRANCH   2  15
HETATM   15  C   UNL     1     -22.224  -6.397  -1.693  1.00  0.00    -0.004 C 
HETATM   16  C   UNL     1     -21.904  -7.406  -0.865  1.00  0.00    -0.023 C 
BRANCH  16  17
HETATM   17  C   UNL     1     -22.626  -7.715   0.418  1.00  0.00     0.054 C 
BRANCH  17  18
HETATM   18  C   UNL     1     -23.386  -9.009   0.315  1.00  0.00    -0.027 C 
HETATM   19  C   UNL     1     -22.960 -10.076  -0.381  1.00  0.00    -0.030 C 
BRANCH  19  20
HETATM   20  C   UNL     1     -23.698 -11.384  -0.459  1.00  0.00     0.027 C 
BRANCH  20  21
HETATM   21  C   UNL     1     -22.899 -12.531   0.165  1.00  0.00     0.014 C 
BRANCH  21  22
HETATM   22  C   UNL     1     -23.635 -13.207   1.326  1.00  0.00     0.110 C 
BRANCH  22  23
HETATM   23  C   UNL     1     -22.855 -14.367   1.896  1.00  0.00     0.139 C 
HETATM   24  O   UNL     1     -22.118 -14.319   2.868  1.00  0.00    -0.650 OA
BRANCH  23  25
HETATM   25  O   UNL     1     -23.062 -15.510   1.200  1.00  0.00    -0.776 OA
HETATM   26  H   UNL     1     -23.621 -15.390   0.409  1.00  0.00     0.167 HD
ENDBRANCH  23  25
ENDBRANCH  22  23
ENDBRANCH  21  22
ENDBRANCH  20  21
ENDBRANCH  19  20
ENDBRANCH  17  18
ENDBRANCH  16  17
ENDBRANCH   2  15
TORSDOF 17
ENDMDL
MODEL 5
REMARK VINA RESULT:      -6.9      2.295      4.149
REMARK  17 active torsions:
REMARK  status: ('A' for Active; 'I' for Inactive)
REMARK    1  A    between atoms: C_2  and  C_3 
REMARK    2  A    between atoms: C_3  and  C_4 
REMARK    3  A    between atoms: C_4  and  C_5 
REMARK    4  A    between atoms: C_5  and  C_6 
REMARK    5  A    between atoms: C_7  and  C_8 
REMARK    6  A    between atoms: C_8  and  C_9 
REMARK    7  A    between atoms: C_9  and  C_10 
REMARK    8  A    between atoms: C_9  and  O_23 
REMARK    9  A    between atoms: C_11  and  C_12 
REMARK   10  A    between atoms: C_13  and  C_14 
REMARK   11  A    between atoms: C_14  and  C_15 
REMARK   12  A    between atoms: C_16  and  C_17 
REMARK   13  A    between atoms: C_17  and  C_18 
REMARK   14  A    between atoms: C_18  and  C_19 
REMARK   15  A    between atoms: C_19  and  C_20 
REMARK   16  A    between atoms: C_20  and  O_22 
REMARK   17  A    between atoms: O_23  and  O_24 
ROOT
HETATM    1  C   UNL     1     -20.937  -7.769  -1.404  1.00  0.00     0.008 C 
HETATM    2  C   UNL     1     -21.580  -7.722  -2.584  1.00  0.00    -0.002 C 
ENDROOT
BRANCH   1   3
HETATM    3  C   UNL     1     -21.639  -7.821  -0.067  1.00  0.00     0.186 C 
BRANCH   3   4
HETATM    4  C   UNL     1     -20.960  -8.751   0.966  1.00  0.00     0.066 C 
BRANCH   4   5
HETATM    5  C   UNL     1     -21.256 -10.208   0.759  1.00  0.00    -0.028 C 
HETATM    6  C   UNL     1     -20.321 -11.112   0.430  1.00  0.00    -0.031 C 
BRANCH   6   7
HETATM    7  C   UNL     1     -20.592 -12.585   0.358  1.00  0.00     0.027 C 
BRANCH   7   8
HETATM    8  C   UNL     1     -22.063 -12.897   0.655  1.00  0.00     0.004 C 
BRANCH   8   9
HETATM    9  C   UNL     1     -22.823 -13.416  -0.572  1.00  0.00    -0.000 C 
BRANCH   9  10
HETATM   10  C   UNL     1     -23.240 -12.274  -1.493  1.00  0.00    -0.005 C 
HETATM   11  C   UNL     1     -24.323 -11.420  -0.858  1.00  0.00     0.005 C 
ENDBRANCH   9  10
ENDBRANCH   8   9
ENDBRANCH   7   8
ENDBRANCH   6   7
ENDBRANCH   4   5
ENDBRANCH   3   4
BRANCH   3  12
HETATM   12  O   UNL     1     -22.963  -8.318  -0.322  1.00  0.00    -0.234 OA
BRANCH  12  13
HETATM   13  O   UNL     1     -23.824  -7.738   0.703  1.00  0.00    -0.250 OA
HETATM   14  H   UNL     1     -24.619  -7.672   0.144  1.00  0.00     0.253 HD
ENDBRANCH  12  13
ENDBRANCH   3  12
ENDBRANCH   1   3
BRANCH   2  15
HETATM   15  C   UNL     1     -20.906  -7.671  -3.861  1.00  0.00    -0.004 C 
HETATM   16  C   UNL     1     -21.010  -6.633  -4.709  1.00  0.00    -0.023 C 
BRANCH  16  17
HETATM   17  C   UNL     1     -20.306  -6.546  -6.035  1.00  0.00     0.054 C 
BRANCH  17  18
HETATM   18  C   UNL     1     -20.772  -5.347  -6.818  1.00  0.00    -0.027 C 
HETATM   19  C   UNL     1     -20.621  -5.214  -8.145  1.00  0.00    -0.030 C 
BRANCH  19  20
HETATM   20  C   UNL     1     -21.115  -4.035  -8.938  1.00  0.00     0.027 C 
BRANCH  20  21
HETATM   21  C   UNL     1     -22.620  -3.816  -8.764  1.00  0.00     0.014 C 
BRANCH  21  22
HETATM   22  C   UNL     1     -23.449  -4.477  -9.868  1.00  0.00     0.110 C 
BRANCH  22  23
HETATM   23  C   UNL     1     -24.488  -3.541 -10.437  1.00  0.00     0.139 C 
HETATM   24  O   UNL     1     -25.439  -3.079  -9.827  1.00  0.00    -0.650 OA
BRANCH  23  25
HETATM   25  O   UNL     1     -24.253  -3.250 -11.739  1.00  0.00    -0.776 OA
HETATM   26  H   UNL     1     -23.319  -3.357 -12.000  1.00  0.00     0.167 HD
ENDBRANCH  23  25
ENDBRANCH  22  23
ENDBRANCH  21  22
ENDBRANCH  20  21
ENDBRANCH  19  20
ENDBRANCH  17  18
ENDBRANCH  16  17
ENDBRANCH   2  15
TORSDOF 17
ENDMDL
MODEL 6
REMARK VINA RESULT:      -6.9      2.709      4.204
REMARK  17 active torsions:
REMARK  status: ('A' for Active; 'I' for Inactive)
REMARK    1  A    between atoms: C_2  and  C_3 
REMARK    2  A    between atoms: C_3  and  C_4 
REMARK    3  A    between atoms: C_4  and  C_5 
REMARK    4  A    between atoms: C_5  and  C_6 
REMARK    5  A    between atoms: C_7  and  C_8 
REMARK    6  A    between atoms: C_8  and  C_9 
REMARK    7  A    between atoms: C_9  and  C_10 
REMARK    8  A    between atoms: C_9  and  O_23 
REMARK    9  A    between atoms: C_11  and  C_12 
REMARK   10  A    between atoms: C_13  and  C_14 
REMARK   11  A    between atoms: C_14  and  C_15 
REMARK   12  A    between atoms: C_16  and  C_17 
REMARK   13  A    between atoms: C_17  and  C_18 
REMARK   14  A    between atoms: C_18  and  C_19 
REMARK   15  A    between atoms: C_19  and  C_20 
REMARK   16  A    between atoms: C_20  and  O_22 
REMARK   17  A    between atoms: O_23  and  O_24 
ROOT
HETATM    1  C   UNL     1     -18.639  -9.253  -3.780  1.00  0.00     0.008 C 
HETATM    2  C   UNL     1     -19.475  -8.955  -4.790  1.00  0.00    -0.002 C 
ENDROOT
BRANCH   1   3
HETATM    3  C   UNL     1     -17.968 -10.598  -3.615  1.00  0.00     0.186 C 
BRANCH   3   4
HETATM    4  C   UNL     1     -18.455 -11.397  -2.384  1.00  0.00     0.066 C 
BRANCH   4   5
HETATM    5  C   UNL     1     -19.529 -10.705  -1.595  1.00  0.00    -0.028 C 
HETATM    6  C   UNL     1     -20.395 -11.352  -0.802  1.00  0.00    -0.031 C 
BRANCH   6   7
HETATM    7  C   UNL     1     -21.376 -10.650   0.088  1.00  0.00     0.027 C 
BRANCH   7   8
HETATM    8  C   UNL     1     -22.188  -9.606  -0.688  1.00  0.00     0.004 C 
BRANCH   8   9
HETATM    9  C   UNL     1     -21.816  -8.165  -0.319  1.00  0.00    -0.000 C 
BRANCH   9  10
HETATM   10  C   UNL     1     -21.315  -7.390  -1.533  1.00  0.00    -0.005 C 
HETATM   11  C   UNL     1     -22.245  -6.238  -1.874  1.00  0.00     0.005 C 
ENDBRANCH   9  10
ENDBRANCH   8   9
ENDBRANCH   7   8
ENDBRANCH   6   7
ENDBRANCH   4   5
ENDBRANCH   3   4
BRANCH   3  12
HETATM   12  O   UNL     1     -16.564 -10.334  -3.458  1.00  0.00    -0.234 OA
BRANCH  12  13
HETATM   13  O   UNL     1     -16.121  -9.719  -4.704  1.00  0.00    -0.250 OA
HETATM   14  H   UNL     1     -15.200 -10.032  -4.651  1.00  0.00     0.253 HD
ENDBRANCH  12  13
ENDBRANCH   3  12
ENDBRANCH   1   3
BRANCH   2  15
HETATM   15  C   UNL     1     -20.116  -7.669  -4.943  1.00  0.00    -0.004 C 
HETATM   16  C   UNL     1     -21.391  -7.524  -5.345  1.00  0.00    -0.023 C 
BRANCH  16  17
HETATM   17  C   UNL     1     -22.089  -6.200  -5.496  1.00  0.00     0.054 C 
BRANCH  17  18
HETATM   18  C   UNL     1     -21.381  -5.325  -6.495  1.00  0.00    -0.027 C 
HETATM   19  C   UNL     1     -21.756  -5.198  -7.778  1.00  0.00    -0.030 C 
BRANCH  19  20
HETATM   20  C   UNL     1     -21.074  -4.299  -8.772  1.00  0.00     0.027 C 
BRANCH  20  21
HETATM   21  C   UNL     1     -21.987  -3.950  -9.950  1.00  0.00     0.014 C 
BRANCH  21  22
HETATM   22  C   UNL     1     -23.446  -4.346  -9.710  1.00  0.00     0.110 C 
BRANCH  22  23
HETATM   23  C   UNL     1     -24.411  -3.407 -10.393  1.00  0.00     0.139 C 
HETATM   24  O   UNL     1     -24.218  -2.840 -11.457  1.00  0.00    -0.650 OA
BRANCH  23  25
HETATM   25  O   UNL     1     -25.555  -3.250  -9.687  1.00  0.00    -0.776 OA
HETATM   26  H   UNL     1     -25.511  -2.534  -9.026  1.00  0.00     0.167 HD
ENDBRANCH  23  25
ENDBRANCH  22  23
ENDBRANCH  21  22
ENDBRANCH  20  21
ENDBRANCH  19  20
ENDBRANCH  17  18
ENDBRANCH  16  17
ENDBRANCH   2  15
TORSDOF 17
ENDMDL
MODEL 7
REMARK VINA RESULT:      -6.9      3.108      5.051
REMARK  17 active torsions:
REMARK  status: ('A' for Active; 'I' for Inactive)
REMARK    1  A    between atoms: C_2  and  C_3 
REMARK    2  A    between atoms: C_3  and  C_4 
REMARK    3  A    between atoms: C_4  and  C_5 
REMARK    4  A    between atoms: C_5  and  C_6 
REMARK    5  A    between atoms: C_7  and  C_8 
REMARK    6  A    between atoms: C_8  and  C_9 
REMARK    7  A    between atoms: C_9  and  C_10 
REMARK    8  A    between atoms: C_9  and  O_23 
REMARK    9  A    between atoms: C_11  and  C_12 
REMARK   10  A    between atoms: C_13  and  C_14 
REMARK   11  A    between atoms: C_14  and  C_15 
REMARK   12  A    between atoms: C_16  and  C_17 
REMARK   13  A    between atoms: C_17  and  C_18 
REMARK   14  A    between atoms: C_18  and  C_19 
REMARK   15  A    between atoms: C_19  and  C_20 
REMARK   16  A    between atoms: C_20  and  O_22 
REMARK   17  A    between atoms: O_23  and  O_24 
ROOT
HETATM    1  C   UNL     1     -21.755  -7.694  -1.060  1.00  0.00     0.008 C 
HETATM    2  C   UNL     1     -21.954  -6.544  -1.727  1.00  0.00    -0.002 C 
ENDROOT
BRANCH   1   3
HETATM    3  C   UNL     1     -22.038  -7.868   0.415  1.00  0.00     0.186 C 
BRANCH   3   4
HETATM    4  C   UNL     1     -21.336  -9.091   1.050  1.00  0.00     0.066 C 
BRANCH   4   5
HETATM    5  C   UNL     1     -20.600  -9.950   0.064  1.00  0.00    -0.028 C 
HETATM    6  C   UNL     1     -19.938 -11.065   0.406  1.00  0.00    -0.031 C 
BRANCH   6   7
HETATM    7  C   UNL     1     -19.320 -11.994  -0.597  1.00  0.00     0.027 C 
BRANCH   7   8
HETATM    8  C   UNL     1     -18.975 -11.261  -1.898  1.00  0.00     0.004 C 
BRANCH   8   9
HETATM    9  C   UNL     1     -17.491 -10.889  -1.998  1.00  0.00    -0.000 C 
BRANCH   9  10
HETATM   10  C   UNL     1     -17.292  -9.598  -2.786  1.00  0.00    -0.005 C 
HETATM   11  C   UNL     1     -16.138  -9.722  -3.766  1.00  0.00     0.005 C 
ENDBRANCH   9  10
ENDBRANCH   8   9
ENDBRANCH   7   8
ENDBRANCH   6   7
ENDBRANCH   4   5
ENDBRANCH   3   4
BRANCH   3  12
HETATM   12  O   UNL     1     -23.459  -8.047   0.537  1.00  0.00    -0.234 OA
BRANCH  12  13
HETATM   13  O   UNL     1     -23.735  -9.420   0.128  1.00  0.00    -0.250 OA
HETATM   14  H   UNL     1     -24.426  -9.197  -0.520  1.00  0.00     0.253 HD
ENDBRANCH  12  13
ENDBRANCH   3  12
ENDBRANCH   1   3
BRANCH   2  15
HETATM   15  C   UNL     1     -21.680  -6.380  -3.137  1.00  0.00    -0.004 C 
HETATM   16  C   UNL     1     -21.403  -7.408  -3.959  1.00  0.00    -0.023 C 
BRANCH  16  17
HETATM   17  C   UNL     1     -21.131  -7.268  -5.432  1.00  0.00     0.054 C 
BRANCH  17  18
HETATM   18  C   UNL     1     -21.709  -5.987  -5.970  1.00  0.00    -0.027 C 
HETATM   19  C   UNL     1     -21.034  -5.133  -6.756  1.00  0.00    -0.030 C 
BRANCH  19  20
HETATM   20  C   UNL     1     -21.616  -3.869  -7.326  1.00  0.00     0.027 C 
BRANCH  20  21
HETATM   21  C   UNL     1     -22.313  -4.112  -8.668  1.00  0.00     0.014 C 
BRANCH  21  22
HETATM   22  C   UNL     1     -23.835  -3.963  -8.583  1.00  0.00     0.110 C 
BRANCH  22  23
HETATM   23  C   UNL     1     -24.424  -3.415  -9.860  1.00  0.00     0.139 C 
HETATM   24  O   UNL     1     -23.793  -3.092 -10.854  1.00  0.00    -0.650 OA
BRANCH  23  25
HETATM   25  O   UNL     1     -25.773  -3.315  -9.796  1.00  0.00    -0.776 OA
HETATM   26  H   UNL     1     -26.097  -2.394  -9.801  1.00  0.00     0.167 HD
ENDBRANCH  23  25
ENDBRANCH  22  23
ENDBRANCH  21  22
ENDBRANCH  20  21
ENDBRANCH  19  20
ENDBRANCH  17  18
ENDBRANCH  16  17
ENDBRANCH   2  15
TORSDOF 17
ENDMDL
MODEL 8
REMARK VINA RESULT:      -6.7      3.265      5.082
REMARK  17 active torsions:
REMARK  status: ('A' for Active; 'I' for Inactive)
REMARK    1  A    between atoms: C_2  and  C_3 
REMARK    2  A    between atoms: C_3  and  C_4 
REMARK    3  A    between atoms: C_4  and  C_5 
REMARK    4  A    between atoms: C_5  and  C_6 
REMARK    5  A    between atoms: C_7  and  C_8 
REMARK    6  A    between atoms: C_8  and  C_9 
REMARK    7  A    between atoms: C_9  and  C_10 
REMARK    8  A    between atoms: C_9  and  O_23 
REMARK    9  A    between atoms: C_11  and  C_12 
REMARK   10  A    between atoms: C_13  and  C_14 
REMARK   11  A    between atoms: C_14  and  C_15 
REMARK   12  A    between atoms: C_16  and  C_17 
REMARK   13  A    between atoms: C_17  and  C_18 
REMARK   14  A    between atoms: C_18  and  C_19 
REMARK   15  A    between atoms: C_19  and  C_20 
REMARK   16  A    between atoms: C_20  and  O_22 
REMARK   17  A    between atoms: O_23  and  O_24 
ROOT
HETATM    1  C   UNL     1     -21.250  -8.867  -1.148  1.00  0.00     0.008 C 
HETATM    2  C   UNL     1     -21.813  -8.383  -2.269  1.00  0.00    -0.002 C 
ENDROOT
BRANCH   1   3
HETATM    3  C   UNL     1     -22.035  -9.265   0.081  1.00  0.00     0.186 C 
BRANCH   3   4
HETATM    4  C   UNL     1     -23.372  -9.979  -0.230  1.00  0.00     0.066 C 
BRANCH   4   5
HETATM    5  C   UNL     1     -23.326 -11.467  -0.037  1.00  0.00    -0.028 C 
HETATM    6  C   UNL     1     -22.525 -12.071   0.854  1.00  0.00    -0.031 C 
BRANCH   6   7
HETATM    7  C   UNL     1     -22.579 -13.541   1.141  1.00  0.00     0.027 C 
BRANCH   7   8
HETATM    8  C   UNL     1     -23.694 -13.876   2.137  1.00  0.00     0.004 C 
BRANCH   8   9
HETATM    9  C   UNL     1     -23.633 -15.324   2.638  1.00  0.00    -0.000 C 
BRANCH   9  10
HETATM   10  C   UNL     1     -22.443 -15.543   3.566  1.00  0.00    -0.005 C 
HETATM   11  C   UNL     1     -22.841 -15.373   5.022  1.00  0.00     0.005 C 
ENDBRANCH   9  10
ENDBRANCH   8   9
ENDBRANCH   7   8
ENDBRANCH   6   7
ENDBRANCH   4   5
ENDBRANCH   3   4
BRANCH   3  12
HETATM   12  O   UNL     1     -22.325  -8.048   0.789  1.00  0.00    -0.234 OA
BRANCH  12  13
HETATM   13  O   UNL     1     -23.769  -7.858   0.701  1.00  0.00    -0.250 OA
HETATM   14  H   UNL     1     -23.945  -7.970   1.653  1.00  0.00     0.253 HD
ENDBRANCH  12  13
ENDBRANCH   3  12
ENDBRANCH   1   3
BRANCH   2  15
HETATM   15  C   UNL     1     -21.060  -8.002  -3.442  1.00  0.00    -0.004 C 
HETATM   16  C   UNL     1     -21.580  -7.283  -4.451  1.00  0.00    -0.023 C 
BRANCH  16  17
HETATM   17  C   UNL     1     -20.815  -6.857  -5.674  1.00  0.00     0.054 C 
BRANCH  17  18
HETATM   18  C   UNL     1     -21.413  -5.619  -6.284  1.00  0.00    -0.027 C 
HETATM   19  C   UNL     1     -20.850  -4.931  -7.290  1.00  0.00    -0.030 C 
BRANCH  19  20
HETATM   20  C   UNL     1     -21.460  -3.713  -7.928  1.00  0.00     0.027 C 
BRANCH  20  21
HETATM   21  C   UNL     1     -22.370  -4.075  -9.103  1.00  0.00     0.014 C 
BRANCH  21  22
HETATM   22  C   UNL     1     -23.856  -3.872  -8.791  1.00  0.00     0.110 C 
BRANCH  22  23
HETATM   23  C   UNL     1     -24.623  -3.356  -9.985  1.00  0.00     0.139 C 
HETATM   24  O   UNL     1     -24.132  -2.976 -11.035  1.00  0.00    -0.650 OA
BRANCH  23  25
HETATM   25  O   UNL     1     -25.960  -3.360  -9.770  1.00  0.00    -0.776 OA
HETATM   26  H   UNL     1     -26.230  -2.854  -8.981  1.00  0.00     0.167 HD
ENDBRANCH  23  25
ENDBRANCH  22  23
ENDBRANCH  21  22
ENDBRANCH  20  21
ENDBRANCH  19  20
ENDBRANCH  17  18
ENDBRANCH  16  17
ENDBRANCH   2  15
TORSDOF 17
ENDMDL
MODEL 9
REMARK VINA RESULT:      -6.6      2.255      3.524
REMARK  17 active torsions:
REMARK  status: ('A' for Active; 'I' for Inactive)
REMARK    1  A    between atoms: C_2  and  C_3 
REMARK    2  A    between atoms: C_3  and  C_4 
REMARK    3  A    between atoms: C_4  and  C_5 
REMARK    4  A    between atoms: C_5  and  C_6 
REMARK    5  A    between atoms: C_7  and  C_8 
REMARK    6  A    between atoms: C_8  and  C_9 
REMARK    7  A    between atoms: C_9  and  C_10 
REMARK    8  A    between atoms: C_9  and  O_23 
REMARK    9  A    between atoms: C_11  and  C_12 
REMARK   10  A    between atoms: C_13  and  C_14 
REMARK   11  A    between atoms: C_14  and  C_15 
REMARK   12  A    between atoms: C_16  and  C_17 
REMARK   13  A    between atoms: C_17  and  C_18 
REMARK   14  A    between atoms: C_18  and  C_19 
REMARK   15  A    between atoms: C_19  and  C_20 
REMARK   16  A    between atoms: C_20  and  O_22 
REMARK   17  A    between atoms: O_23  and  O_24 
ROOT
HETATM    1  C   UNL     1     -21.230  -7.342  -2.605  1.00  0.00     0.008 C 
HETATM    2  C   UNL     1     -21.269  -8.193  -3.644  1.00  0.00    -0.002 C 
ENDROOT
BRANCH   1   3
HETATM    3  C   UNL     1     -21.626  -7.719  -1.196  1.00  0.00     0.186 C 
BRANCH   3   4
HETATM    4  C   UNL     1     -22.290  -9.112  -1.080  1.00  0.00     0.066 C 
BRANCH   4   5
HETATM    5  C   UNL     1     -21.543 -10.071  -0.200  1.00  0.00    -0.028 C 
HETATM    6  C   UNL     1     -20.691 -10.994  -0.671  1.00  0.00    -0.031 C 
BRANCH   6   7
HETATM    7  C   UNL     1     -19.844 -11.857   0.215  1.00  0.00     0.027 C 
BRANCH   7   8
HETATM    8  C   UNL     1     -19.993 -13.340  -0.143  1.00  0.00     0.004 C 
BRANCH   8   9
HETATM    9  C   UNL     1     -20.923 -14.095   0.814  1.00  0.00    -0.000 C 
BRANCH   9  10
HETATM   10  C   UNL     1     -22.371 -14.049   0.337  1.00  0.00    -0.005 C 
HETATM   11  C   UNL     1     -23.224 -13.181   1.245  1.00  0.00     0.005 C 
ENDBRANCH   9  10
ENDBRANCH   8   9
ENDBRANCH   7   8
ENDBRANCH   6   7
ENDBRANCH   4   5
ENDBRANCH   3   4
BRANCH   3  12
HETATM   12  O   UNL     1     -22.571  -6.728  -0.760  1.00  0.00    -0.234 OA
BRANCH  12  13
HETATM   13  O   UNL     1     -22.550  -5.672  -1.766  1.00  0.00    -0.250 OA
HETATM   14  H   UNL     1     -21.651  -5.859  -2.091  1.00  0.00     0.253 HD
ENDBRANCH  12  13
ENDBRANCH   3  12
ENDBRANCH   1   3
BRANCH   2  15
HETATM   15  C   UNL     1     -20.892  -7.829  -4.991  1.00  0.00    -0.004 C 
HETATM   16  C   UNL     1     -20.494  -6.592  -5.336  1.00  0.00    -0.023 C 
BRANCH  16  17
HETATM   17  C   UNL     1     -20.080  -6.189  -6.725  1.00  0.00     0.054 C 
BRANCH  17  18
HETATM   18  C   UNL     1     -20.823  -4.961  -7.177  1.00  0.00    -0.027 C 
HETATM   19  C   UNL     1     -21.664  -4.937  -8.223  1.00  0.00    -0.030 C 
BRANCH  19  20
HETATM   20  C   UNL     1     -22.436  -3.721  -8.659  1.00  0.00     0.027 C 
BRANCH  20  21
HETATM   21  C   UNL     1     -22.679  -3.707 -10.170  1.00  0.00     0.014 C 
BRANCH  21  22
HETATM   22  C   UNL     1     -24.137  -3.412 -10.535  1.00  0.00     0.110 C 
BRANCH  22  23
HETATM   23  C   UNL     1     -24.283  -2.949 -11.964  1.00  0.00     0.139 C 
HETATM   24  O   UNL     1     -25.257  -3.135 -12.676  1.00  0.00    -0.650 OA
BRANCH  23  25
HETATM   25  O   UNL     1     -23.188  -2.279 -12.397  1.00  0.00    -0.776 OA
HETATM   26  H   UNL     1     -22.953  -2.473 -13.324  1.00  0.00     0.167 HD
ENDBRANCH  23  25
ENDBRANCH  22  23
ENDBRANCH  21  22
ENDBRANCH  20  21
ENDBRANCH  19  20
ENDBRANCH  17  18
ENDBRANCH  16  17
ENDBRANCH   2  15
TORSDOF 17
ENDMDL
