MODEL 1
REMARK VINA RESULT:      -7.8      0.000      0.000
REMARK  9 active torsions:
REMARK  status: ('A' for Active; 'I' for Inactive)
REMARK    1  A    between atoms: C_2  and  C_3 
REMARK    2  A    between atoms: C_3  and  C_4 
REMARK    3  A    between atoms: C_7  and  C_8 
REMARK    4  A    between atoms: C_14  and  C_15 
REMARK    5  A    between atoms: C_16  and  C_17 
REMARK       I    between atoms: C_17  and  N_19 
REMARK    6  A    between atoms: N_19  and  C_20 
REMARK    7  A    between atoms: C_20  and  C_22 
REMARK    8  A    between atoms: C_26  and  N_27 
REMARK    9  A    between atoms: N_27  and  S_28 
ROOT
HETATM    1  C   UNL     1     -22.208  -8.089  -0.689  1.00  0.00     0.241 C 
HETATM    2  O   UNL     1     -22.500  -7.638   0.412  1.00  0.00    -0.269 OA
HETATM    3  N   UNL     1     -22.179  -9.430  -0.985  1.00  0.00    -0.349 N 
HETATM    4  H   UNL     1     -21.904  -9.744  -1.904  1.00  0.00     0.163 HD
ENDROOT
BRANCH   1   5
HETATM    5  C   UNL     1     -21.828  -7.203  -1.827  1.00  0.00     0.075 C 
HETATM    6  C   UNL     1     -21.224  -7.743  -2.903  1.00  0.00     0.019 C 
BRANCH   6   7
HETATM    7  C   UNL     1     -20.809  -7.014  -4.118  1.00  0.00    -0.013 A 
HETATM    8  C   UNL     1     -20.217  -7.646  -5.228  1.00  0.00     0.019 A 
HETATM    9  N   UNL     1     -19.857  -6.969  -6.357  1.00  0.00    -0.355 N 
HETATM   10  C   UNL     1     -20.081  -5.628  -6.429  1.00  0.00     0.117 A 
ATOM     11  HN  UNL     1     -19.423  -7.462  -7.137  1.00  0.00     0.166 HD
HETATM   12  C   UNL     1     -20.697  -4.942  -5.387  1.00  0.00     0.035 A 
HETATM   13  C   UNL     1     -21.064  -5.641  -4.237  1.00  0.00     0.015 A 
BRANCH   8  14
HETATM   14  C   UNL     1     -19.915  -9.127  -5.276  1.00  0.00     0.057 C 
BRANCH  14  15
HETATM   15  C   UNL     1     -18.426  -9.430  -5.088  1.00  0.00     0.002 C 
HETATM   16  C   UNL     1     -18.071  -9.558  -3.613  1.00  0.00     0.005 C 
ENDBRANCH  14  15
ENDBRANCH   8  14
BRANCH  10  17
HETATM   17  C   UNL     1     -19.638  -4.849  -7.663  1.00  0.00     0.432 C 
HETATM   18  F   UNL     1     -19.787  -5.515  -8.841  1.00  0.00    -0.165 F 
HETATM   19  F   UNL     1     -20.316  -3.673  -7.810  1.00  0.00    -0.165 F 
HETATM   20  F   UNL     1     -18.318  -4.497  -7.602  1.00  0.00    -0.165 F 
ENDBRANCH  10  17
ENDBRANCH   6   7
ENDBRANCH   1   5
BRANCH   3  21
HETATM   21  C   UNL     1     -22.477 -10.442   0.026  1.00  0.00     0.114 C 
HETATM   22  C   UNL     1     -23.846 -11.072  -0.236  1.00  0.00     0.037 C 
BRANCH  21  23
HETATM   23  C   UNL     1     -21.334 -11.446   0.107  1.00  0.00    -0.030 A 
HETATM   24  C   UNL     1     -20.054 -11.062  -0.331  1.00  0.00     0.053 A 
HETATM   25  C   UNL     1     -18.990 -11.972  -0.335  1.00  0.00     0.142 A 
HETATM   26  F   UNL     1     -17.794 -11.567  -0.786  1.00  0.00    -0.204 F 
HETATM   27  C   UNL     1     -19.185 -13.296   0.050  1.00  0.00     0.099 A 
HETATM   28  C   UNL     1     -20.436 -13.665   0.541  1.00  0.00     0.142 A 
HETATM   29  F   UNL     1     -20.649 -14.927   0.943  1.00  0.00    -0.204 F 
HETATM   30  C   UNL     1     -21.504 -12.763   0.563  1.00  0.00     0.053 A 
BRANCH  27  31
HETATM   31  N   UNL     1     -18.141 -14.274  -0.103  1.00  0.00    -0.180 NA
HETATM   32  H   UNL     1     -18.479 -15.189  -0.413  1.00  0.00     0.146 HD
BRANCH  31  33
HETATM   33  S   UNL     1     -17.087 -14.529   1.190  1.00  0.00     0.210 S 
HETATM   34  C   UNL     1     -15.764 -15.425   0.410  1.00  0.00     0.180 C 
HETATM   35  O   UNL     1     -16.585 -13.256   1.667  1.00  0.00    -0.211 OA
HETATM   36  O   UNL     1     -17.782 -15.447   2.069  1.00  0.00    -0.211 OA
ENDBRANCH  31  33
ENDBRANCH  27  31
ENDBRANCH  21  23
ENDBRANCH   3  21
TORSDOF 9
ENDMDL
MODEL 2
REMARK VINA RESULT:      -7.6     15.932     19.098
REMARK  9 active torsions:
REMARK  status: ('A' for Active; 'I' for Inactive)
REMARK    1  A    between atoms: C_2  and  C_3 
REMARK    2  A    between atoms: C_3  and  C_4 
REMARK    3  A    between atoms: C_7  and  C_8 
REMARK    4  A    between atoms: C_14  and  C_15 
REMARK    5  A    between atoms: C_16  and  C_17 
REMARK       I    between atoms: C_17  and  N_19 
REMARK    6  A    between atoms: N_19  and  C_20 
REMARK    7  A    between atoms: C_20  and  C_22 
REMARK    8  A    between atoms: C_26  and  N_27 
REMARK    9  A    between atoms: N_27  and  S_28 
ROOT
HETATM    1  C   UNL     1     -34.044  -4.375 -15.195  1.00  0.00     0.241 C 
HETATM    2  O   UNL     1     -34.885  -4.945 -15.879  1.00  0.00    -0.269 OA
HETATM    3  N   UNL     1     -32.741  -4.183 -15.585  1.00  0.00    -0.349 N 
HETATM    4  H   UNL     1     -32.084  -3.729 -14.966  1.00  0.00     0.163 HD
ENDROOT
BRANCH   1   5
HETATM    5  C   UNL     1     -34.361  -3.844 -13.838  1.00  0.00     0.075 C 
HETATM    6  C   UNL     1     -34.893  -2.612 -13.725  1.00  0.00     0.019 C 
BRANCH   6   7
HETATM    7  C   UNL     1     -35.287  -1.953 -12.464  1.00  0.00    -0.013 A 
HETATM    8  C   UNL     1     -34.692  -2.251 -11.224  1.00  0.00     0.019 A 
HETATM    9  N   UNL     1     -35.046  -1.621 -10.065  1.00  0.00    -0.355 N 
HETATM   10  C   UNL     1     -36.005  -0.656 -10.098  1.00  0.00     0.117 A 
ATOM     11  HN  UNL     1     -34.596  -1.871  -9.184  1.00  0.00     0.166 HD
HETATM   12  C   UNL     1     -36.611  -0.282 -11.294  1.00  0.00     0.035 A 
HETATM   13  C   UNL     1     -36.244  -0.928 -12.473  1.00  0.00     0.015 A 
BRANCH   8  14
HETATM   14  C   UNL     1     -33.615  -3.298 -11.049  1.00  0.00     0.057 C 
BRANCH  14  15
HETATM   15  C   UNL     1     -34.139  -4.577 -10.390  1.00  0.00     0.002 C 
HETATM   16  C   UNL     1     -33.544  -5.818 -11.040  1.00  0.00     0.005 C 
ENDBRANCH  14  15
ENDBRANCH   8  14
BRANCH  10  17
HETATM   17  C   UNL     1     -36.447   0.020  -8.805  1.00  0.00     0.432 C 
HETATM   18  F   UNL     1     -35.500   0.054  -7.828  1.00  0.00    -0.165 F 
HETATM   19  F   UNL     1     -36.832   1.317  -8.999  1.00  0.00    -0.165 F 
HETATM   20  F   UNL     1     -37.532  -0.597  -8.247  1.00  0.00    -0.165 F 
ENDBRANCH  10  17
ENDBRANCH   6   7
ENDBRANCH   1   5
BRANCH   3  21
HETATM   21  C   UNL     1     -32.245  -4.683 -16.865  1.00  0.00     0.114 C 
HETATM   22  C   UNL     1     -32.083  -3.532 -17.861  1.00  0.00     0.037 C 
BRANCH  21  23
HETATM   23  C   UNL     1     -30.979  -5.502 -16.648  1.00  0.00    -0.030 A 
HETATM   24  C   UNL     1     -30.237  -5.314 -15.468  1.00  0.00     0.053 A 
HETATM   25  C   UNL     1     -29.034  -5.996 -15.256  1.00  0.00     0.142 A 
HETATM   26  F   UNL     1     -28.349  -5.764 -14.127  1.00  0.00    -0.204 F 
HETATM   27  C   UNL     1     -28.516  -6.845 -16.232  1.00  0.00     0.099 A 
HETATM   28  C   UNL     1     -29.277  -7.080 -17.376  1.00  0.00     0.142 A 
HETATM   29  F   UNL     1     -28.817  -7.911 -18.322  1.00  0.00    -0.204 F 
HETATM   30  C   UNL     1     -30.487  -6.414 -17.594  1.00  0.00     0.053 A 
BRANCH  27  31
HETATM   31  N   UNL     1     -27.207  -7.424 -16.091  1.00  0.00    -0.180 NA
HETATM   32  H   UNL     1     -27.008  -7.761 -15.145  1.00  0.00     0.146 HD
BRANCH  31  33
HETATM   33  S   UNL     1     -25.875  -6.525 -16.605  1.00  0.00     0.210 S 
HETATM   34  C   UNL     1     -24.570  -7.730 -16.525  1.00  0.00     0.180 C 
HETATM   35  O   UNL     1     -26.064  -6.117 -17.982  1.00  0.00    -0.211 OA
HETATM   36  O   UNL     1     -25.643  -5.556 -15.552  1.00  0.00    -0.211 OA
ENDBRANCH  31  33
ENDBRANCH  27  31
ENDBRANCH  21  23
ENDBRANCH   3  21
TORSDOF 9
ENDMDL
MODEL 3
REMARK VINA RESULT:      -7.6      4.131      9.095
REMARK  9 active torsions:
REMARK  status: ('A' for Active; 'I' for Inactive)
REMARK    1  A    between atoms: C_2  and  C_3 
REMARK    2  A    between atoms: C_3  and  C_4 
REMARK    3  A    between atoms: C_7  and  C_8 
REMARK    4  A    between atoms: C_14  and  C_15 
REMARK    5  A    between atoms: C_16  and  C_17 
REMARK       I    between atoms: C_17  and  N_19 
REMARK    6  A    between atoms: N_19  and  C_20 
REMARK    7  A    between atoms: C_20  and  C_22 
REMARK    8  A    between atoms: C_26  and  N_27 
REMARK    9  A    between atoms: N_27  and  S_28 
ROOT
HETATM    1  C   UNL     1     -20.492 -11.802   0.118  1.00  0.00     0.241 C 
HETATM    2  O   UNL     1     -21.587 -12.337   0.246  1.00  0.00    -0.269 OA
HETATM    3  N   UNL     1     -20.316 -10.451  -0.064  1.00  0.00    -0.349 N 
HETATM    4  H   UNL     1     -19.390 -10.070  -0.192  1.00  0.00     0.163 HD
ENDROOT
BRANCH   1   5
HETATM    5  C   UNL     1     -19.225 -12.588   0.125  1.00  0.00     0.075 C 
HETATM    6  C   UNL     1     -18.053 -11.939   0.254  1.00  0.00     0.019 C 
BRANCH   6   7
HETATM    7  C   UNL     1     -16.718 -12.567   0.307  1.00  0.00    -0.013 A 
HETATM    8  C   UNL     1     -15.934 -12.800  -0.839  1.00  0.00     0.019 A 
HETATM    9  N   UNL     1     -14.691 -13.361  -0.781  1.00  0.00    -0.355 N 
HETATM   10  C   UNL     1     -14.172 -13.705   0.429  1.00  0.00     0.117 A 
ATOM     11  HN  UNL     1     -14.157 -13.521  -1.635  1.00  0.00     0.166 HD
HETATM   12  C   UNL     1     -14.873 -13.470   1.608  1.00  0.00     0.035 A 
HETATM   13  C   UNL     1     -16.141 -12.895   1.541  1.00  0.00     0.015 A 
BRANCH   8  14
HETATM   14  C   UNL     1     -16.391 -12.464  -2.241  1.00  0.00     0.057 C 
BRANCH  14  15
HETATM   15  C   UNL     1     -15.498 -11.421  -2.917  1.00  0.00     0.002 C 
HETATM   16  C   UNL     1     -15.954 -10.007  -2.589  1.00  0.00     0.005 C 
ENDBRANCH  14  15
ENDBRANCH   8  14
BRANCH  10  17
HETATM   17  C   UNL     1     -12.806 -14.379   0.507  1.00  0.00     0.432 C 
HETATM   18  F   UNL     1     -12.815 -15.617   1.073  1.00  0.00    -0.165 F 
HETATM   19  F   UNL     1     -12.229 -14.534  -0.722  1.00  0.00    -0.165 F 
HETATM   20  F   UNL     1     -11.911 -13.645   1.234  1.00  0.00    -0.165 F 
ENDBRANCH  10  17
ENDBRANCH   6   7
ENDBRANCH   1   5
BRANCH   3  21
HETATM   21  C   UNL     1     -21.453  -9.537  -0.146  1.00  0.00     0.114 C 
HETATM   22  C   UNL     1     -21.469  -8.596   1.061  1.00  0.00     0.037 C 
BRANCH  21  23
HETATM   23  C   UNL     1     -21.449  -8.823  -1.492  1.00  0.00    -0.030 A 
HETATM   24  C   UNL     1     -21.444  -7.417  -1.519  1.00  0.00     0.053 A 
HETATM   25  C   UNL     1     -21.507  -6.719  -2.731  1.00  0.00     0.142 A 
HETATM   26  F   UNL     1     -21.526  -5.379  -2.705  1.00  0.00    -0.204 F 
HETATM   27  C   UNL     1     -21.623  -7.401  -3.940  1.00  0.00     0.099 A 
HETATM   28  C   UNL     1     -21.567  -8.794  -3.921  1.00  0.00     0.142 A 
HETATM   29  F   UNL     1     -21.652  -9.480  -5.071  1.00  0.00    -0.204 F 
HETATM   30  C   UNL     1     -21.493  -9.504  -2.718  1.00  0.00     0.053 A 
BRANCH  27  31
HETATM   31  N   UNL     1     -21.848  -6.694  -5.171  1.00  0.00    -0.180 NA
HETATM   32  H   UNL     1     -22.423  -7.211  -5.842  1.00  0.00     0.146 HD
BRANCH  31  33
HETATM   33  S   UNL     1     -20.511  -6.090  -6.004  1.00  0.00     0.210 S 
HETATM   34  C   UNL     1     -21.235  -5.605  -7.553  1.00  0.00     0.180 C 
HETATM   35  O   UNL     1     -20.005  -4.914  -5.326  1.00  0.00    -0.211 OA
HETATM   36  O   UNL     1     -19.668  -7.243  -6.254  1.00  0.00    -0.211 OA
ENDBRANCH  31  33
ENDBRANCH  27  31
ENDBRANCH  21  23
ENDBRANCH   3  21
TORSDOF 9
ENDMDL
MODEL 4
REMARK VINA RESULT:      -7.4      4.210      9.217
REMARK  9 active torsions:
REMARK  status: ('A' for Active; 'I' for Inactive)
REMARK    1  A    between atoms: C_2  and  C_3 
REMARK    2  A    between atoms: C_3  and  C_4 
REMARK    3  A    between atoms: C_7  and  C_8 
REMARK    4  A    between atoms: C_14  and  C_15 
REMARK    5  A    between atoms: C_16  and  C_17 
REMARK       I    between atoms: C_17  and  N_19 
REMARK    6  A    between atoms: N_19  and  C_20 
REMARK    7  A    between atoms: C_20  and  C_22 
REMARK    8  A    between atoms: C_26  and  N_27 
REMARK    9  A    between atoms: N_27  and  S_28 
ROOT
HETATM    1  C   UNL     1     -20.190 -11.891   0.121  1.00  0.00     0.241 C 
HETATM    2  O   UNL     1     -21.161 -12.370   0.694  1.00  0.00    -0.269 OA
HETATM    3  N   UNL     1     -20.129 -10.596  -0.332  1.00  0.00    -0.349 N 
HETATM    4  H   UNL     1     -19.312 -10.264  -0.823  1.00  0.00     0.163 HD
ENDROOT
BRANCH   1   5
HETATM    5  C   UNL     1     -18.967 -12.696  -0.162  1.00  0.00     0.075 C 
HETATM    6  C   UNL     1     -17.825 -12.059  -0.487  1.00  0.00     0.019 C 
BRANCH   6   7
HETATM    7  C   UNL     1     -16.527 -12.702  -0.770  1.00  0.00    -0.013 A 
HETATM    8  C   UNL     1     -15.603 -13.041   0.236  1.00  0.00     0.019 A 
HETATM    9  N   UNL     1     -14.414 -13.656  -0.031  1.00  0.00    -0.355 N 
HETATM   10  C   UNL     1     -14.100 -13.969  -1.318  1.00  0.00     0.117 A 
ATOM     11  HN  UNL     1     -13.767 -13.879   0.726  1.00  0.00     0.166 HD
HETATM   12  C   UNL     1     -14.981 -13.699  -2.361  1.00  0.00     0.035 A 
HETATM   13  C   UNL     1     -16.194 -13.072  -2.080  1.00  0.00     0.015 A 
BRANCH   8  14
HETATM   14  C   UNL     1     -15.828 -12.751   1.703  1.00  0.00     0.057 C 
BRANCH  14  15
HETATM   15  C   UNL     1     -15.787 -14.015   2.566  1.00  0.00     0.002 C 
HETATM   16  C   UNL     1     -16.905 -14.977   2.189  1.00  0.00     0.005 C 
ENDBRANCH  14  15
ENDBRANCH   8  14
BRANCH  10  17
HETATM   17  C   UNL     1     -12.754 -14.610  -1.638  1.00  0.00     0.432 C 
HETATM   18  F   UNL     1     -11.766 -14.333  -0.744  1.00  0.00    -0.165 F 
HETATM   19  F   UNL     1     -12.826 -15.973  -1.705  1.00  0.00    -0.165 F 
HETATM   20  F   UNL     1     -12.273 -14.215  -2.855  1.00  0.00    -0.165 F 
ENDBRANCH  10  17
ENDBRANCH   6   7
ENDBRANCH   1   5
BRANCH   3  21
HETATM   21  C   UNL     1     -21.258  -9.681  -0.182  1.00  0.00     0.114 C 
HETATM   22  C   UNL     1     -21.129  -8.881   1.116  1.00  0.00     0.037 C 
BRANCH  21  23
HETATM   23  C   UNL     1     -21.400  -8.821  -1.432  1.00  0.00    -0.030 A 
HETATM   24  C   UNL     1     -21.572  -7.432  -1.290  1.00  0.00     0.053 A 
HETATM   25  C   UNL     1     -21.771  -6.612  -2.406  1.00  0.00     0.142 A 
HETATM   26  F   UNL     1     -21.956  -5.298  -2.219  1.00  0.00    -0.204 F 
HETATM   27  C   UNL     1     -21.850  -7.159  -3.686  1.00  0.00     0.099 A 
HETATM   28  C   UNL     1     -21.620  -8.525  -3.836  1.00  0.00     0.142 A 
HETATM   29  F   UNL     1     -21.666  -9.078  -5.058  1.00  0.00    -0.204 F 
HETATM   30  C   UNL     1     -21.408  -9.354  -2.730  1.00  0.00     0.053 A 
BRANCH  27  31
HETATM   31  N   UNL     1     -22.213  -6.347  -4.817  1.00  0.00    -0.180 NA
HETATM   32  H   UNL     1     -22.865  -6.808  -5.458  1.00  0.00     0.146 HD
BRANCH  31  33
HETATM   33  S   UNL     1     -20.977  -5.668  -5.743  1.00  0.00     0.210 S 
HETATM   34  C   UNL     1     -21.896  -4.761  -6.965  1.00  0.00     0.180 C 
HETATM   35  O   UNL     1     -20.215  -4.739  -4.933  1.00  0.00    -0.211 OA
HETATM   36  O   UNL     1     -20.345  -6.788  -6.411  1.00  0.00    -0.211 OA
ENDBRANCH  31  33
ENDBRANCH  27  31
ENDBRANCH  21  23
ENDBRANCH   3  21
TORSDOF 9
ENDMDL
MODEL 5
REMARK VINA RESULT:      -7.4      5.734     10.149
REMARK  9 active torsions:
REMARK  status: ('A' for Active; 'I' for Inactive)
REMARK    1  A    between atoms: C_2  and  C_3 
REMARK    2  A    between atoms: C_3  and  C_4 
REMARK    3  A    between atoms: C_7  and  C_8 
REMARK    4  A    between atoms: C_14  and  C_15 
REMARK    5  A    between atoms: C_16  and  C_17 
REMARK       I    between atoms: C_17  and  N_19 
REMARK    6  A    between atoms: N_19  and  C_20 
REMARK    7  A    between atoms: C_20  and  C_22 
REMARK    8  A    between atoms: C_26  and  N_27 
REMARK    9  A    between atoms: N_27  and  S_28 
ROOT
HETATM    1  C   UNL     1     -20.012  -8.916  -5.034  1.00  0.00     0.241 C 
HETATM    2  O   UNL     1     -20.963  -9.382  -5.650  1.00  0.00    -0.269 OA
HETATM    3  N   UNL     1     -20.088  -7.801  -4.236  1.00  0.00    -0.349 N 
HETATM    4  H   UNL     1     -19.263  -7.447  -3.774  1.00  0.00     0.163 HD
ENDROOT
BRANCH   1   5
HETATM    5  C   UNL     1     -18.650  -9.519  -5.115  1.00  0.00     0.075 C 
HETATM    6  C   UNL     1     -18.525 -10.802  -5.505  1.00  0.00     0.019 C 
BRANCH   6   7
HETATM    7  C   UNL     1     -17.255 -11.538  -5.662  1.00  0.00    -0.013 A 
HETATM    8  C   UNL     1     -17.192 -12.880  -6.081  1.00  0.00     0.019 A 
HETATM    9  N   UNL     1     -16.012 -13.547  -6.245  1.00  0.00    -0.355 N 
HETATM   10  C   UNL     1     -14.841 -12.896  -6.006  1.00  0.00     0.117 A 
ATOM     11  HN  UNL     1     -16.008 -14.523  -6.544  1.00  0.00     0.166 HD
HETATM   12  C   UNL     1     -14.823 -11.558  -5.625  1.00  0.00     0.035 A 
HETATM   13  C   UNL     1     -16.032 -10.883  -5.461  1.00  0.00     0.015 A 
BRANCH   8  14
HETATM   14  C   UNL     1     -18.417 -13.715  -6.381  1.00  0.00     0.057 C 
BRANCH  14  15
HETATM   15  C   UNL     1     -18.500 -14.131  -7.852  1.00  0.00     0.002 C 
HETATM   16  C   UNL     1     -18.988 -12.982  -8.723  1.00  0.00     0.005 C 
ENDBRANCH  14  15
ENDBRANCH   8  14
BRANCH  10  17
HETATM   17  C   UNL     1     -13.517 -13.642  -6.136  1.00  0.00     0.432 C 
HETATM   18  F   UNL     1     -13.610 -14.867  -6.724  1.00  0.00    -0.165 F 
HETATM   19  F   UNL     1     -12.594 -12.947  -6.864  1.00  0.00    -0.165 F 
HETATM   20  F   UNL     1     -12.928 -13.859  -4.921  1.00  0.00    -0.165 F 
ENDBRANCH  10  17
ENDBRANCH   6   7
ENDBRANCH   1   5
BRANCH   3  21
HETATM   21  C   UNL     1     -21.335  -7.055  -4.082  1.00  0.00     0.114 C 
HETATM   22  C   UNL     1     -21.362  -6.333  -2.733  1.00  0.00     0.037 C 
BRANCH  21  23
HETATM   23  C   UNL     1     -21.546  -6.142  -5.282  1.00  0.00    -0.030 A 
HETATM   24  C   UNL     1     -20.424  -5.611  -5.943  1.00  0.00     0.053 A 
HETATM   25  C   UNL     1     -20.570  -4.717  -7.009  1.00  0.00     0.142 A 
HETATM   26  F   UNL     1     -19.470  -4.217  -7.591  1.00  0.00    -0.204 F 
HETATM   27  C   UNL     1     -21.834  -4.292  -7.413  1.00  0.00     0.099 A 
HETATM   28  C   UNL     1     -22.950  -4.861  -6.801  1.00  0.00     0.142 A 
HETATM   29  F   UNL     1     -24.181  -4.491  -7.184  1.00  0.00    -0.204 F 
HETATM   30  C   UNL     1     -22.817  -5.765  -5.743  1.00  0.00     0.053 A 
BRANCH  27  31
HETATM   31  N   UNL     1     -21.987  -3.254  -8.398  1.00  0.00    -0.180 NA
HETATM   32  H   UNL     1     -22.640  -2.517  -8.117  1.00  0.00     0.146 HD
BRANCH  31  33
HETATM   33  S   UNL     1     -22.371  -3.702  -9.979  1.00  0.00     0.210 S 
HETATM   34  C   UNL     1     -24.074  -3.205 -10.094  1.00  0.00     0.180 C 
HETATM   35  O   UNL     1     -21.582  -2.921 -10.911  1.00  0.00    -0.211 OA
HETATM   36  O   UNL     1     -22.334  -5.150  -9.982  1.00  0.00    -0.211 OA
ENDBRANCH  31  33
ENDBRANCH  27  31
ENDBRANCH  21  23
ENDBRANCH   3  21
TORSDOF 9
ENDMDL
MODEL 6
REMARK VINA RESULT:      -7.3      4.031      9.281
REMARK  9 active torsions:
REMARK  status: ('A' for Active; 'I' for Inactive)
REMARK    1  A    between atoms: C_2  and  C_3 
REMARK    2  A    between atoms: C_3  and  C_4 
REMARK    3  A    between atoms: C_7  and  C_8 
REMARK    4  A    between atoms: C_14  and  C_15 
REMARK    5  A    between atoms: C_16  and  C_17 
REMARK       I    between atoms: C_17  and  N_19 
REMARK    6  A    between atoms: N_19  and  C_20 
REMARK    7  A    between atoms: C_20  and  C_22 
REMARK    8  A    between atoms: C_26  and  N_27 
REMARK    9  A    between atoms: N_27  and  S_28 
ROOT
HETATM    1  C   UNL     1     -21.205 -10.427  -1.013  1.00  0.00     0.241 C 
HETATM    2  O   UNL     1     -22.239 -10.969  -1.384  1.00  0.00    -0.269 OA
HETATM    3  N   UNL     1     -21.000  -9.069  -1.036  1.00  0.00    -0.349 N 
HETATM    4  H   UNL     1     -20.116  -8.681  -0.743  1.00  0.00     0.163 HD
ENDROOT
BRANCH   1   5
HETATM    5  C   UNL     1     -20.040 -11.212  -0.510  1.00  0.00     0.075 C 
HETATM    6  C   UNL     1     -18.885 -11.183  -1.202  1.00  0.00     0.019 C 
BRANCH   6   7
HETATM    7  C   UNL     1     -17.637 -11.878  -0.829  1.00  0.00    -0.013 A 
HETATM    8  C   UNL     1     -16.617 -12.172  -1.753  1.00  0.00     0.019 A 
HETATM    9  N   UNL     1     -15.456 -12.795  -1.397  1.00  0.00    -0.355 N 
HETATM   10  C   UNL     1     -15.260 -13.144  -0.096  1.00  0.00     0.117 A 
ATOM     11  HN  UNL     1     -14.743 -12.998  -2.098  1.00  0.00     0.166 HD
HETATM   12  C   UNL     1     -16.207 -12.853   0.880  1.00  0.00     0.035 A 
HETATM   13  C   UNL     1     -17.390 -12.215   0.509  1.00  0.00     0.015 A 
BRANCH   8  14
HETATM   14  C   UNL     1     -16.707 -11.837  -3.225  1.00  0.00     0.057 C 
BRANCH  14  15
HETATM   15  C   UNL     1     -15.698 -10.766  -3.648  1.00  0.00     0.002 C 
HETATM   16  C   UNL     1     -15.969  -9.443  -2.946  1.00  0.00     0.005 C 
ENDBRANCH  14  15
ENDBRANCH   8  14
BRANCH  10  17
HETATM   17  C   UNL     1     -13.991 -13.887   0.308  1.00  0.00     0.432 C 
HETATM   18  F   UNL     1     -13.217 -13.236   1.220  1.00  0.00    -0.165 F 
HETATM   19  F   UNL     1     -14.253 -15.114   0.848  1.00  0.00    -0.165 F 
HETATM   20  F   UNL     1     -13.175 -14.132  -0.761  1.00  0.00    -0.165 F 
ENDBRANCH  10  17
ENDBRANCH   6   7
ENDBRANCH   1   5
BRANCH   3  21
HETATM   21  C   UNL     1     -22.018  -8.152  -1.544  1.00  0.00     0.114 C 
HETATM   22  C   UNL     1     -22.319  -7.063  -0.513  1.00  0.00     0.037 C 
BRANCH  21  23
HETATM   23  C   UNL     1     -21.603  -7.619  -2.910  1.00  0.00    -0.030 A 
HETATM   24  C   UNL     1     -21.117  -6.303  -3.011  1.00  0.00     0.053 A 
HETATM   25  C   UNL     1     -20.785  -5.750  -4.253  1.00  0.00     0.142 A 
HETATM   26  F   UNL     1     -20.352  -4.482  -4.302  1.00  0.00    -0.204 F 
HETATM   27  C   UNL     1     -20.972  -6.475  -5.428  1.00  0.00     0.099 A 
HETATM   28  C   UNL     1     -21.395  -7.800  -5.327  1.00  0.00     0.142 A 
HETATM   29  F   UNL     1     -21.561  -8.532  -6.438  1.00  0.00    -0.204 F 
HETATM   30  C   UNL     1     -21.719  -8.368  -4.091  1.00  0.00     0.053 A 
BRANCH  27  31
HETATM   31  N   UNL     1     -20.786  -5.861  -6.715  1.00  0.00    -0.180 NA
HETATM   32  H   UNL     1     -19.833  -5.521  -6.872  1.00  0.00     0.146 HD
BRANCH  31  33
HETATM   33  S   UNL     1     -21.850  -4.637  -7.179  1.00  0.00     0.210 S 
HETATM   34  C   UNL     1     -21.980  -4.914  -8.931  1.00  0.00     0.180 C 
HETATM   35  O   UNL     1     -23.143  -4.857  -6.564  1.00  0.00    -0.211 OA
HETATM   36  O   UNL     1     -21.117  -3.403  -6.983  1.00  0.00    -0.211 OA
ENDBRANCH  31  33
ENDBRANCH  27  31
ENDBRANCH  21  23
ENDBRANCH   3  21
TORSDOF 9
ENDMDL
MODEL 7
REMARK VINA RESULT:      -7.3      5.264      9.624
REMARK  9 active torsions:
REMARK  status: ('A' for Active; 'I' for Inactive)
REMARK    1  A    between atoms: C_2  and  C_3 
REMARK    2  A    between atoms: C_3  and  C_4 
REMARK    3  A    between atoms: C_7  and  C_8 
REMARK    4  A    between atoms: C_14  and  C_15 
REMARK    5  A    between atoms: C_16  and  C_17 
REMARK       I    between atoms: C_17  and  N_19 
REMARK    6  A    between atoms: N_19  and  C_20 
REMARK    7  A    between atoms: C_20  and  C_22 
REMARK    8  A    between atoms: C_26  and  N_27 
REMARK    9  A    between atoms: N_27  and  S_28 
ROOT
HETATM    1  C   UNL     1     -20.955  -9.528  -4.071  1.00  0.00     0.241 C 
HETATM    2  O   UNL     1     -22.088  -9.987  -3.981  1.00  0.00    -0.269 OA
HETATM    3  N   UNL     1     -20.665  -8.186  -4.023  1.00  0.00    -0.349 N 
HETATM    4  H   UNL     1     -19.714  -7.865  -4.131  1.00  0.00     0.163 HD
ENDROOT
BRANCH   1   5
HETATM    5  C   UNL     1     -19.765 -10.405  -4.268  1.00  0.00     0.075 C 
HETATM    6  C   UNL     1     -18.782  -9.997  -5.095  1.00  0.00     0.019 C 
BRANCH   6   7
HETATM    7  C   UNL     1     -17.532 -10.729  -5.378  1.00  0.00    -0.013 A 
HETATM    8  C   UNL     1     -17.386 -11.606  -6.469  1.00  0.00     0.019 A 
HETATM    9  N   UNL     1     -16.220 -12.263  -6.737  1.00  0.00    -0.355 N 
HETATM   10  C   UNL     1     -15.143 -12.063  -5.930  1.00  0.00     0.117 A 
ATOM     11  HN  UNL     1     -16.156 -12.896  -7.535  1.00  0.00     0.166 HD
HETATM   12  C   UNL     1     -15.201 -11.183  -4.854  1.00  0.00     0.035 A 
HETATM   13  C   UNL     1     -16.395 -10.515  -4.587  1.00  0.00     0.015 A 
BRANCH   8  14
HETATM   14  C   UNL     1     -18.502 -11.914  -7.442  1.00  0.00     0.057 C 
BRANCH  14  15
HETATM   15  C   UNL     1     -19.423 -13.032  -6.947  1.00  0.00     0.002 C 
HETATM   16  C   UNL     1     -20.889 -12.658  -7.120  1.00  0.00     0.005 C 
ENDBRANCH  14  15
ENDBRANCH   8  14
BRANCH  10  17
HETATM   17  C   UNL     1     -13.849 -12.828  -6.186  1.00  0.00     0.432 C 
HETATM   18  F   UNL     1     -12.941 -12.765  -5.173  1.00  0.00    -0.165 F 
HETATM   19  F   UNL     1     -14.063 -14.158  -6.413  1.00  0.00    -0.165 F 
HETATM   20  F   UNL     1     -13.195 -12.375  -7.298  1.00  0.00    -0.165 F 
ENDBRANCH  10  17
ENDBRANCH   6   7
ENDBRANCH   1   5
BRANCH   3  21
HETATM   21  C   UNL     1     -21.717  -7.182  -3.884  1.00  0.00     0.114 C 
HETATM   22  C   UNL     1     -21.736  -6.622  -2.460  1.00  0.00     0.037 C 
BRANCH  21  23
HETATM   23  C   UNL     1     -21.571  -6.122  -4.969  1.00  0.00    -0.030 A 
HETATM   24  C   UNL     1     -22.718  -5.685  -5.656  1.00  0.00     0.053 A 
HETATM   25  C   UNL     1     -22.622  -4.762  -6.704  1.00  0.00     0.142 A 
HETATM   26  F   UNL     1     -23.740  -4.395  -7.347  1.00  0.00    -0.204 F 
HETATM   27  C   UNL     1     -21.382  -4.287  -7.123  1.00  0.00     0.099 A 
HETATM   28  C   UNL     1     -20.250  -4.671  -6.406  1.00  0.00     0.142 A 
HETATM   29  F   UNL     1     -19.043  -4.211  -6.769  1.00  0.00    -0.204 F 
HETATM   30  C   UNL     1     -20.332  -5.584  -5.349  1.00  0.00     0.053 A 
BRANCH  27  31
HETATM   31  N   UNL     1     -21.261  -3.465  -8.297  1.00  0.00    -0.180 NA
HETATM   32  H   UNL     1     -22.014  -2.779  -8.396  1.00  0.00     0.146 HD
BRANCH  31  33
HETATM   33  S   UNL     1     -21.064  -4.226  -9.790  1.00  0.00     0.210 S 
HETATM   34  C   UNL     1     -20.775  -2.842 -10.868  1.00  0.00     0.180 C 
HETATM   35  O   UNL     1     -19.880  -5.061  -9.759  1.00  0.00    -0.211 OA
HETATM   36  O   UNL     1     -22.368  -4.770 -10.113  1.00  0.00    -0.211 OA
ENDBRANCH  31  33
ENDBRANCH  27  31
ENDBRANCH  21  23
ENDBRANCH   3  21
TORSDOF 9
ENDMDL
MODEL 8
REMARK VINA RESULT:      -7.3      2.837      4.461
REMARK  9 active torsions:
REMARK  status: ('A' for Active; 'I' for Inactive)
REMARK    1  A    between atoms: C_2  and  C_3 
REMARK    2  A    between atoms: C_3  and  C_4 
REMARK    3  A    between atoms: C_7  and  C_8 
REMARK    4  A    between atoms: C_14  and  C_15 
REMARK    5  A    between atoms: C_16  and  C_17 
REMARK       I    between atoms: C_17  and  N_19 
REMARK    6  A    between atoms: N_19  and  C_20 
REMARK    7  A    between atoms: C_20  and  C_22 
REMARK    8  A    between atoms: C_26  and  N_27 
REMARK    9  A    between atoms: N_27  and  S_28 
ROOT
HETATM    1  C   UNL     1     -18.068 -10.434  -4.825  1.00  0.00     0.241 C 
HETATM    2  O   UNL     1     -17.902 -11.544  -5.315  1.00  0.00    -0.269 OA
HETATM    3  N   UNL     1     -17.795 -10.126  -3.514  1.00  0.00    -0.349 N 
HETATM    4  H   UNL     1     -17.978  -9.200  -3.158  1.00  0.00     0.163 HD
ENDROOT
BRANCH   1   5
HETATM    5  C   UNL     1     -18.614  -9.296  -5.619  1.00  0.00     0.075 C 
HETATM    6  C   UNL     1     -19.543  -8.496  -5.061  1.00  0.00     0.019 C 
BRANCH   6   7
HETATM    7  C   UNL     1     -20.163  -7.317  -5.698  1.00  0.00    -0.013 A 
HETATM    8  C   UNL     1     -21.268  -6.639  -5.148  1.00  0.00     0.019 A 
HETATM    9  N   UNL     1     -21.822  -5.537  -5.731  1.00  0.00    -0.355 N 
HETATM   10  C   UNL     1     -21.289  -5.056  -6.888  1.00  0.00     0.117 A 
ATOM     11  HN  UNL     1     -22.627  -5.077  -5.305  1.00  0.00     0.166 HD
HETATM   12  C   UNL     1     -20.174  -5.651  -7.470  1.00  0.00     0.035 A 
HETATM   13  C   UNL     1     -19.613  -6.777  -6.868  1.00  0.00     0.015 A 
BRANCH   8  14
HETATM   14  C   UNL     1     -21.952  -7.067  -3.869  1.00  0.00     0.057 C 
BRANCH  14  15
HETATM   15  C   UNL     1     -21.520  -6.230  -2.662  1.00  0.00     0.002 C 
HETATM   16  C   UNL     1     -22.243  -6.672  -1.397  1.00  0.00     0.005 C 
ENDBRANCH  14  15
ENDBRANCH   8  14
BRANCH  10  17
HETATM   17  C   UNL     1     -21.928  -3.856  -7.578  1.00  0.00     0.432 C 
HETATM   18  F   UNL     1     -21.578  -3.699  -8.885  1.00  0.00    -0.165 F 
HETATM   19  F   UNL     1     -23.293  -3.909  -7.560  1.00  0.00    -0.165 F 
HETATM   20  F   UNL     1     -21.606  -2.678  -6.965  1.00  0.00    -0.165 F 
ENDBRANCH  10  17
ENDBRANCH   6   7
ENDBRANCH   1   5
BRANCH   3  21
HETATM   21  C   UNL     1     -17.299 -11.135  -2.580  1.00  0.00     0.114 C 
HETATM   22  C   UNL     1     -16.055 -10.623  -1.851  1.00  0.00     0.037 C 
BRANCH  21  23
HETATM   23  C   UNL     1     -18.423 -11.583  -1.654  1.00  0.00    -0.030 A 
HETATM   24  C   UNL     1     -19.538 -10.744  -1.478  1.00  0.00     0.053 A 
HETATM   25  C   UNL     1     -20.563 -11.084  -0.588  1.00  0.00     0.142 A 
HETATM   26  F   UNL     1     -21.594 -10.240  -0.434  1.00  0.00    -0.204 F 
HETATM   27  C   UNL     1     -20.482 -12.242   0.183  1.00  0.00     0.099 A 
HETATM   28  C   UNL     1     -19.409 -13.105  -0.032  1.00  0.00     0.142 A 
HETATM   29  F   UNL     1     -19.314 -14.240   0.676  1.00  0.00    -0.204 F 
HETATM   30  C   UNL     1     -18.384 -12.783  -0.928  1.00  0.00     0.053 A 
BRANCH  27  31
HETATM   31  N   UNL     1     -21.448 -12.516   1.212  1.00  0.00    -0.180 NA
HETATM   32  H   UNL     1     -21.086 -13.106   1.967  1.00  0.00     0.146 HD
BRANCH  31  33
HETATM   33  S   UNL     1     -22.950 -13.135   0.756  1.00  0.00     0.210 S 
HETATM   34  C   UNL     1     -23.446 -14.007   2.224  1.00  0.00     0.180 C 
HETATM   35  O   UNL     1     -23.873 -12.044   0.514  1.00  0.00    -0.211 OA
HETATM   36  O   UNL     1     -22.659 -14.122  -0.265  1.00  0.00    -0.211 OA
ENDBRANCH  31  33
ENDBRANCH  27  31
ENDBRANCH  21  23
ENDBRANCH   3  21
TORSDOF 9
ENDMDL
MODEL 9
REMARK VINA RESULT:      -7.0      5.608     10.256
REMARK  9 active torsions:
REMARK  status: ('A' for Active; 'I' for Inactive)
REMARK    1  A    between atoms: C_2  and  C_3 
REMARK    2  A    between atoms: C_3  and  C_4 
REMARK    3  A    between atoms: C_7  and  C_8 
REMARK    4  A    between atoms: C_14  and  C_15 
REMARK    5  A    between atoms: C_16  and  C_17 
REMARK       I    between atoms: C_17  and  N_19 
REMARK    6  A    between atoms: N_19  and  C_20 
REMARK    7  A    between atoms: C_20  and  C_22 
REMARK    8  A    between atoms: C_26  and  N_27 
REMARK    9  A    between atoms: N_27  and  S_28 
ROOT
HETATM    1  C   UNL     1     -20.067  -9.378  -5.200  1.00  0.00     0.241 C 
HETATM    2  O   UNL     1     -21.076 -10.008  -5.491  1.00  0.00    -0.269 OA
HETATM    3  N   UNL     1     -20.082  -8.120  -4.648  1.00  0.00    -0.349 N 
HETATM    4  H   UNL     1     -19.217  -7.637  -4.454  1.00  0.00     0.163 HD
ENDROOT
BRANCH   1   5
HETATM    5  C   UNL     1     -18.701  -9.923  -5.443  1.00  0.00     0.075 C 
HETATM    6  C   UNL     1     -18.456 -11.220  -5.172  1.00  0.00     0.019 C 
BRANCH   6   7
HETATM    7  C   UNL     1     -17.172 -11.918  -5.380  1.00  0.00    -0.013 A 
HETATM    8  C   UNL     1     -15.988 -11.565  -4.705  1.00  0.00     0.019 A 
HETATM    9  N   UNL     1     -14.810 -12.230  -4.886  1.00  0.00    -0.355 N 
HETATM   10  C   UNL     1     -14.766 -13.287  -5.743  1.00  0.00     0.117 A 
ATOM     11  HN  UNL     1     -13.971 -11.939  -4.384  1.00  0.00     0.166 HD
HETATM   12  C   UNL     1     -15.905 -13.717  -6.416  1.00  0.00     0.035 A 
HETATM   13  C   UNL     1     -17.106 -13.034  -6.226  1.00  0.00     0.015 A 
BRANCH   8  14
HETATM   14  C   UNL     1     -15.901 -10.415  -3.727  1.00  0.00     0.057 C 
BRANCH  14  15
HETATM   15  C   UNL     1     -15.668 -10.883  -2.288  1.00  0.00     0.002 C 
HETATM   16  C   UNL     1     -16.950 -11.419  -1.667  1.00  0.00     0.005 C 
ENDBRANCH  14  15
ENDBRANCH   8  14
BRANCH  10  17
HETATM   17  C   UNL     1     -13.446 -14.008  -5.994  1.00  0.00     0.432 C 
HETATM   18  F   UNL     1     -12.564 -13.324  -6.774  1.00  0.00    -0.165 F 
HETATM   19  F   UNL     1     -12.778 -14.294  -4.837  1.00  0.00    -0.165 F 
HETATM   20  F   UNL     1     -13.628 -15.214  -6.611  1.00  0.00    -0.165 F 
ENDBRANCH  10  17
ENDBRANCH   6   7
ENDBRANCH   1   5
BRANCH   3  21
HETATM   21  C   UNL     1     -21.335  -7.414  -4.388  1.00  0.00     0.114 C 
HETATM   22  C   UNL     1     -21.432  -7.026  -2.911  1.00  0.00     0.037 C 
BRANCH  21  23
HETATM   23  C   UNL     1     -21.481  -6.243  -5.351  1.00  0.00    -0.030 A 
HETATM   24  C   UNL     1     -22.771  -5.817  -5.718  1.00  0.00     0.053 A 
HETATM   25  C   UNL     1     -22.953  -4.789  -6.649  1.00  0.00     0.142 A 
HETATM   26  F   UNL     1     -24.201  -4.435  -6.987  1.00  0.00    -0.204 F 
HETATM   27  C   UNL     1     -21.860  -4.191  -7.273  1.00  0.00     0.099 A 
HETATM   28  C   UNL     1     -20.580  -4.569  -6.869  1.00  0.00     0.142 A 
HETATM   29  F   UNL     1     -19.507  -3.995  -7.433  1.00  0.00    -0.204 F 
HETATM   30  C   UNL     1     -20.384  -5.587  -5.930  1.00  0.00     0.053 A 
BRANCH  27  31
HETATM   31  N   UNL     1     -22.041  -3.249  -8.345  1.00  0.00    -0.180 NA
HETATM   32  H   UNL     1     -22.652  -2.465  -8.101  1.00  0.00     0.146 HD
BRANCH  31  33
HETATM   33  S   UNL     1     -22.534  -3.833  -9.849  1.00  0.00     0.210 S 
HETATM   34  C   UNL     1     -24.242  -3.340  -9.889  1.00  0.00     0.180 C 
HETATM   35  O   UNL     1     -21.814  -3.142 -10.899  1.00  0.00    -0.211 OA
HETATM   36  O   UNL     1     -22.496  -5.276  -9.726  1.00  0.00    -0.211 OA
ENDBRANCH  31  33
ENDBRANCH  27  31
ENDBRANCH  21  23
ENDBRANCH   3  21
TORSDOF 9
ENDMDL
