MODEL 1
REMARK VINA RESULT:      -8.8      0.000      0.000
REMARK  3 active torsions:
REMARK  status: ('A' for Active; 'I' for Inactive)
REMARK    1  A    between atoms: N_9  and  C_10 
REMARK    2  A    between atoms: C_10  and  C_11 
REMARK    3  A    between atoms: C_15  and  C_16 
ROOT
HETATM    1  C   UNL     1     -21.981  -6.949  -1.409  1.00  0.00     0.050 C 
HETATM    2  C   UNL     1     -21.214  -7.492  -2.575  1.00  0.00    -0.033 A 
HETATM    3  C   UNL     1     -21.347  -6.819  -3.812  1.00  0.00     0.033 A 
HETATM    4  C   UNL     1     -20.631  -7.214  -4.950  1.00  0.00     0.035 A 
HETATM    5 CL   UNL     1     -20.846  -6.372  -6.434  1.00  0.00    -0.084 Cl
HETATM    6  C   UNL     1     -19.744  -8.279  -4.888  1.00  0.00     0.036 A 
HETATM    7  C   UNL     1     -19.630  -8.959  -3.681  1.00  0.00     0.018 A 
HETATM    8  C   UNL     1     -20.378  -8.608  -2.540  1.00  0.00     0.053 A 
HETATM    9  N   UNL     1     -20.120  -9.564  -1.528  1.00  0.00    -0.310 N 
HETATM   10  C   UNL     1     -19.209 -10.545  -1.971  1.00  0.00     0.268 C 
HETATM   11  O   UNL     1     -18.878 -11.561  -1.374  1.00  0.00    -0.269 OA
HETATM   12  C   UNL     1     -18.752 -10.134  -3.376  1.00  0.00     0.227 A 
HETATM   13  N   UNL     1     -18.828 -11.178  -4.367  1.00  0.00    -0.313 N 
HETATM   14  C   UNL     1     -17.585 -11.517  -4.837  1.00  0.00     0.324 A 
HETATM   15  O   UNL     1     -17.361 -12.400  -5.644  1.00  0.00    -0.247 OA
HETATM   16  N   UNL     1     -16.666 -10.696  -4.278  1.00  0.00    -0.276 N 
HETATM   17  C   UNL     1     -17.257  -9.829  -3.406  1.00  0.00     0.268 A 
HETATM   18  O   UNL     1     -16.668  -8.967  -2.773  1.00  0.00    -0.269 OA
HETATM   19  H   UNL     1     -19.646 -11.726  -4.591  1.00  0.00     0.166 HD
HETATM   20  H   UNL     1     -15.680 -10.733  -4.474  1.00  0.00     0.173 HD
ENDROOT
BRANCH   9  21
HETATM   21  C   UNL     1     -20.823  -9.737  -0.272  1.00  0.00     0.171 C 
BRANCH  21  22
HETATM   22  C   UNL     1     -21.971 -10.730  -0.287  1.00  0.00    -0.039 A 
HETATM   23  C   UNL     1     -23.064 -10.623  -1.156  1.00  0.00     0.009 A 
HETATM   24  C   UNL     1     -24.129 -11.524  -1.076  1.00  0.00     0.001 A 
HETATM   25  C   UNL     1     -24.120 -12.547  -0.129  1.00  0.00     0.016 A 
HETATM   26  C   UNL     1     -23.032 -12.695   0.740  1.00  0.00     0.048 A 
HETATM   27  C   UNL     1     -21.954 -11.795   0.636  1.00  0.00     0.025 A 
BRANCH  26  28
HETATM   28  C   UNL     1     -23.017 -13.782   1.789  1.00  0.00     0.417 C 
HETATM   29  F   UNL     1     -21.883 -13.799   2.546  1.00  0.00    -0.166 F 
HETATM   30  F   UNL     1     -24.051 -13.672   2.670  1.00  0.00    -0.166 F 
HETATM   31  F   UNL     1     -23.121 -15.029   1.250  1.00  0.00    -0.166 F 
ENDBRANCH  26  28
ENDBRANCH  21  22
ENDBRANCH   9  21
TORSDOF 3
ENDMDL
MODEL 2
REMARK VINA RESULT:      -8.7      5.781      8.071
REMARK  3 active torsions:
REMARK  status: ('A' for Active; 'I' for Inactive)
REMARK    1  A    between atoms: N_9  and  C_10 
REMARK    2  A    between atoms: C_10  and  C_11 
REMARK    3  A    between atoms: C_15  and  C_16 
ROOT
HETATM    1  C   UNL     1     -22.285  -6.305  -1.717  1.00  0.00     0.050 C 
HETATM    2  C   UNL     1     -21.445  -7.516  -1.985  1.00  0.00    -0.033 A 
HETATM    3  C   UNL     1     -21.259  -8.427  -0.919  1.00  0.00     0.033 A 
HETATM    4  C   UNL     1     -20.535  -9.617  -1.081  1.00  0.00     0.035 A 
HETATM    5 CL   UNL     1     -20.322 -10.680   0.254  1.00  0.00    -0.084 Cl
HETATM    6  C   UNL     1     -19.990  -9.947  -2.313  1.00  0.00     0.036 A 
HETATM    7  C   UNL     1     -20.149  -9.041  -3.356  1.00  0.00     0.018 A 
HETATM    8  C   UNL     1     -20.831  -7.817  -3.200  1.00  0.00     0.053 A 
HETATM    9  N   UNL     1     -20.708  -7.083  -4.405  1.00  0.00    -0.310 N 
HETATM   10  C   UNL     1     -19.961  -7.796  -5.364  1.00  0.00     0.268 C 
HETATM   11  O   UNL     1     -19.586  -7.386  -6.454  1.00  0.00    -0.269 OA
HETATM   12  C   UNL     1     -19.648  -9.172  -4.762  1.00  0.00     0.227 A 
HETATM   13  N   UNL     1     -18.265  -9.568  -4.842  1.00  0.00    -0.313 N 
HETATM   14  C   UNL     1     -18.103 -10.673  -5.639  1.00  0.00     0.324 A 
HETATM   15  O   UNL     1     -17.034 -11.185  -5.913  1.00  0.00    -0.247 OA
HETATM   16  N   UNL     1     -19.321 -11.105  -6.041  1.00  0.00    -0.276 N 
HETATM   17  C   UNL     1     -20.306 -10.291  -5.564  1.00  0.00     0.268 A 
HETATM   18  O   UNL     1     -21.501 -10.454  -5.759  1.00  0.00    -0.269 OA
HETATM   19  H   UNL     1     -17.474  -9.036  -4.508  1.00  0.00     0.166 HD
HETATM   20  H   UNL     1     -19.471 -11.912  -6.624  1.00  0.00     0.173 HD
ENDROOT
BRANCH   9  21
HETATM   21  C   UNL     1     -21.054  -5.695  -4.636  1.00  0.00     0.171 C 
BRANCH  21  22
HETATM   22  C   UNL     1     -20.745  -5.157  -6.021  1.00  0.00    -0.039 A 
HETATM   23  C   UNL     1     -19.462  -4.762  -6.420  1.00  0.00     0.009 A 
HETATM   24  C   UNL     1     -19.247  -4.204  -7.683  1.00  0.00     0.001 A 
HETATM   25  C   UNL     1     -20.309  -4.034  -8.570  1.00  0.00     0.016 A 
HETATM   26  C   UNL     1     -21.601  -4.439  -8.211  1.00  0.00     0.048 A 
HETATM   27  C   UNL     1     -21.801  -5.020  -6.944  1.00  0.00     0.025 A 
BRANCH  26  28
HETATM   28  C   UNL     1     -22.768  -4.238  -9.149  1.00  0.00     0.417 C 
HETATM   29  F   UNL     1     -23.930  -3.908  -8.517  1.00  0.00    -0.166 F 
HETATM   30  F   UNL     1     -22.543  -3.247 -10.056  1.00  0.00    -0.166 F 
HETATM   31  F   UNL     1     -23.048  -5.353  -9.880  1.00  0.00    -0.166 F 
ENDBRANCH  26  28
ENDBRANCH  21  22
ENDBRANCH   9  21
TORSDOF 3
ENDMDL
MODEL 3
REMARK VINA RESULT:      -8.7      3.602      5.346
REMARK  3 active torsions:
REMARK  status: ('A' for Active; 'I' for Inactive)
REMARK    1  A    between atoms: N_9  and  C_10 
REMARK    2  A    between atoms: C_10  and  C_11 
REMARK    3  A    between atoms: C_15  and  C_16 
ROOT
HETATM    1  C   UNL     1     -16.208  -9.439  -2.692  1.00  0.00     0.050 C 
HETATM    2  C   UNL     1     -16.259 -10.327  -3.897  1.00  0.00    -0.033 A 
HETATM    3  C   UNL     1     -15.037 -10.875  -4.353  1.00  0.00     0.033 A 
HETATM    4  C   UNL     1     -14.982 -11.759  -5.439  1.00  0.00     0.035 A 
HETATM    5 CL   UNL     1     -13.467 -12.381  -5.964  1.00  0.00    -0.084 Cl
HETATM    6  C   UNL     1     -16.144 -12.142  -6.093  1.00  0.00     0.036 A 
HETATM    7  C   UNL     1     -17.344 -11.585  -5.665  1.00  0.00     0.018 A 
HETATM    8  C   UNL     1     -17.413 -10.657  -4.607  1.00  0.00     0.053 A 
HETATM    9  N   UNL     1     -18.749 -10.197  -4.505  1.00  0.00    -0.310 N 
HETATM   10  C   UNL     1     -19.574 -10.806  -5.472  1.00  0.00     0.268 C 
HETATM   11  O   UNL     1     -20.743 -10.536  -5.714  1.00  0.00    -0.269 OA
HETATM   12  C   UNL     1     -18.714 -11.837  -6.215  1.00  0.00     0.227 A 
HETATM   13  N   UNL     1     -18.778 -11.756  -7.653  1.00  0.00    -0.313 N 
HETATM   14  C   UNL     1     -19.334 -12.885  -8.197  1.00  0.00     0.324 A 
HETATM   15  O   UNL     1     -19.547 -13.056  -9.382  1.00  0.00    -0.247 OA
HETATM   16  N   UNL     1     -19.577 -13.775  -7.206  1.00  0.00    -0.276 N 
HETATM   17  C   UNL     1     -19.232 -13.255  -5.993  1.00  0.00     0.268 A 
HETATM   18  O   UNL     1     -19.330 -13.845  -4.928  1.00  0.00    -0.269 OA
HETATM   19  H   UNL     1     -18.601 -10.932  -8.209  1.00  0.00     0.166 HD
HETATM   20  H   UNL     1     -19.971 -14.689  -7.350  1.00  0.00     0.173 HD
ENDROOT
BRANCH   9  21
HETATM   21  C   UNL     1     -19.247  -9.088  -3.717  1.00  0.00     0.171 C 
BRANCH  21  22
HETATM   22  C   UNL     1     -19.825  -9.446  -2.361  1.00  0.00    -0.039 A 
HETATM   23  C   UNL     1     -19.575 -10.666  -1.719  1.00  0.00     0.009 A 
HETATM   24  C   UNL     1     -20.193 -10.973  -0.504  1.00  0.00     0.001 A 
HETATM   25  C   UNL     1     -21.069 -10.067   0.092  1.00  0.00     0.016 A 
HETATM   26  C   UNL     1     -21.324  -8.829  -0.512  1.00  0.00     0.048 A 
HETATM   27  C   UNL     1     -20.678  -8.521  -1.725  1.00  0.00     0.025 A 
BRANCH  26  28
HETATM   28  C   UNL     1     -22.290  -7.847   0.107  1.00  0.00     0.417 C 
HETATM   29  F   UNL     1     -23.547  -8.348   0.279  1.00  0.00    -0.166 F 
HETATM   30  F   UNL     1     -21.887  -7.422   1.337  1.00  0.00    -0.166 F 
HETATM   31  F   UNL     1     -22.441  -6.720  -0.643  1.00  0.00    -0.166 F 
ENDBRANCH  26  28
ENDBRANCH  21  22
ENDBRANCH   9  21
TORSDOF 3
ENDMDL
MODEL 4
REMARK VINA RESULT:      -8.5      4.529      5.890
REMARK  3 active torsions:
REMARK  status: ('A' for Active; 'I' for Inactive)
REMARK    1  A    between atoms: N_9  and  C_10 
REMARK    2  A    between atoms: C_10  and  C_11 
REMARK    3  A    between atoms: C_15  and  C_16 
ROOT
HETATM    1  C   UNL     1     -22.460 -11.515  -3.471  1.00  0.00     0.050 C 
HETATM    2  C   UNL     1     -21.244 -11.926  -4.242  1.00  0.00    -0.033 A 
HETATM    3  C   UNL     1     -21.396 -12.960  -5.195  1.00  0.00     0.033 A 
HETATM    4  C   UNL     1     -20.334 -13.382  -6.006  1.00  0.00     0.035 A 
HETATM    5 CL   UNL     1     -20.569 -14.657  -7.136  1.00  0.00    -0.084 Cl
HETATM    6  C   UNL     1     -19.090 -12.774  -5.908  1.00  0.00     0.036 A 
HETATM    7  C   UNL     1     -18.929 -11.776  -4.954  1.00  0.00     0.018 A 
HETATM    8  C   UNL     1     -19.972 -11.372  -4.096  1.00  0.00     0.053 A 
HETATM    9  N   UNL     1     -19.450 -10.434  -3.173  1.00  0.00    -0.310 N 
HETATM   10  C   UNL     1     -18.079 -10.199  -3.402  1.00  0.00     0.268 C 
HETATM   11  O   UNL     1     -17.323  -9.534  -2.707  1.00  0.00    -0.269 OA
HETATM   12  C   UNL     1     -17.690 -10.987  -4.659  1.00  0.00     0.227 A 
HETATM   13  N   UNL     1     -16.511 -11.805  -4.521  1.00  0.00    -0.313 N 
HETATM   14  C   UNL     1     -15.502 -11.376  -5.345  1.00  0.00     0.324 A 
HETATM   15  O   UNL     1     -14.386 -11.859  -5.391  1.00  0.00    -0.247 OA
HETATM   16  N   UNL     1     -15.961 -10.355  -6.105  1.00  0.00    -0.276 N 
HETATM   17  C   UNL     1     -17.253 -10.055  -5.785  1.00  0.00     0.268 A 
HETATM   18  O   UNL     1     -17.921  -9.187  -6.324  1.00  0.00    -0.269 OA
HETATM   19  H   UNL     1     -16.352 -12.502  -3.808  1.00  0.00     0.166 HD
HETATM   20  H   UNL     1     -15.414  -9.876  -6.801  1.00  0.00     0.173 HD
ENDROOT
BRANCH   9  21
HETATM   21  C   UNL     1     -20.088  -9.916  -1.980  1.00  0.00     0.171 C 
BRANCH  21  22
HETATM   22  C   UNL     1     -20.752  -8.558  -2.119  1.00  0.00    -0.039 A 
HETATM   23  C   UNL     1     -21.519  -7.973  -1.103  1.00  0.00     0.009 A 
HETATM   24  C   UNL     1     -22.169  -6.754  -1.312  1.00  0.00     0.001 A 
HETATM   25  C   UNL     1     -22.062  -6.098  -2.538  1.00  0.00     0.016 A 
HETATM   26  C   UNL     1     -21.285  -6.644  -3.567  1.00  0.00     0.048 A 
HETATM   27  C   UNL     1     -20.617  -7.862  -3.337  1.00  0.00     0.025 A 
BRANCH  26  28
HETATM   28  C   UNL     1     -21.181  -5.960  -4.909  1.00  0.00     0.417 C 
HETATM   29  F   UNL     1     -20.580  -4.736  -4.856  1.00  0.00    -0.166 F 
HETATM   30  F   UNL     1     -20.465  -6.686  -5.812  1.00  0.00    -0.166 F 
HETATM   31  F   UNL     1     -22.398  -5.749  -5.484  1.00  0.00    -0.166 F 
ENDBRANCH  26  28
ENDBRANCH  21  22
ENDBRANCH   9  21
TORSDOF 3
ENDMDL
MODEL 5
REMARK VINA RESULT:      -8.1      5.085      7.388
REMARK  3 active torsions:
REMARK  status: ('A' for Active; 'I' for Inactive)
REMARK    1  A    between atoms: N_9  and  C_10 
REMARK    2  A    between atoms: C_10  and  C_11 
REMARK    3  A    between atoms: C_15  and  C_16 
ROOT
HETATM    1  C   UNL     1     -16.715  -9.621  -3.332  1.00  0.00     0.050 C 
HETATM    2  C   UNL     1     -17.166 -10.584  -2.277  1.00  0.00    -0.033 A 
HETATM    3  C   UNL     1     -16.167 -11.185  -1.475  1.00  0.00     0.033 A 
HETATM    4  C   UNL     1     -16.487 -12.057  -0.426  1.00  0.00     0.035 A 
HETATM    5 CL   UNL     1     -15.232 -12.775   0.506  1.00  0.00    -0.084 Cl
HETATM    6  C   UNL     1     -17.812 -12.345  -0.128  1.00  0.00     0.036 A 
HETATM    7  C   UNL     1     -18.794 -11.777  -0.931  1.00  0.00     0.018 A 
HETATM    8  C   UNL     1     -18.491 -10.936  -2.021  1.00  0.00     0.053 A 
HETATM    9  N   UNL     1     -19.698 -10.630  -2.696  1.00  0.00    -0.310 N 
HETATM   10  C   UNL     1     -20.802 -11.247  -2.074  1.00  0.00     0.268 C 
HETATM   11  O   UNL     1     -21.955 -11.269  -2.483  1.00  0.00    -0.269 OA
HETATM   12  C   UNL     1     -20.279 -11.944  -0.812  1.00  0.00     0.227 A 
HETATM   13  N   UNL     1     -20.690 -13.318  -0.664  1.00  0.00    -0.313 N 
HETATM   14  C   UNL     1     -21.489 -13.488   0.437  1.00  0.00     0.324 A 
HETATM   15  O   UNL     1     -22.010 -14.537   0.766  1.00  0.00    -0.247 OA
HETATM   16  N   UNL     1     -21.576 -12.312   1.101  1.00  0.00    -0.276 N 
HETATM   17  C   UNL     1     -20.883 -11.335   0.449  1.00  0.00     0.268 A 
HETATM   18  O   UNL     1     -20.778 -10.179   0.833  1.00  0.00    -0.269 OA
HETATM   19  H   UNL     1     -20.565 -14.052  -1.346  1.00  0.00     0.166 HD
HETATM   20  H   UNL     1     -22.095 -12.179   1.953  1.00  0.00     0.173 HD
ENDROOT
BRANCH   9  21
HETATM   21  C   UNL     1     -19.853  -9.987  -3.985  1.00  0.00     0.171 C 
BRANCH  21  22
HETATM   22  C   UNL     1     -20.288  -8.534  -3.952  1.00  0.00    -0.039 A 
HETATM   23  C   UNL     1     -20.832  -7.923  -2.815  1.00  0.00     0.009 A 
HETATM   24  C   UNL     1     -21.284  -6.602  -2.861  1.00  0.00     0.001 A 
HETATM   25  C   UNL     1     -21.200  -5.868  -4.043  1.00  0.00     0.016 A 
HETATM   26  C   UNL     1     -20.641  -6.441  -5.193  1.00  0.00     0.048 A 
HETATM   27  C   UNL     1     -20.169  -7.765  -5.128  1.00  0.00     0.025 A 
BRANCH  26  28
HETATM   28  C   UNL     1     -20.566  -5.668  -6.489  1.00  0.00     0.417 C 
HETATM   29  F   UNL     1     -21.134  -4.430  -6.423  1.00  0.00    -0.166 F 
HETATM   30  F   UNL     1     -19.284  -5.468  -6.904  1.00  0.00    -0.166 F 
HETATM   31  F   UNL     1     -21.193  -6.308  -7.515  1.00  0.00    -0.166 F 
ENDBRANCH  26  28
ENDBRANCH  21  22
ENDBRANCH   9  21
TORSDOF 3
ENDMDL
MODEL 6
REMARK VINA RESULT:      -8.1      5.228      6.712
REMARK  3 active torsions:
REMARK  status: ('A' for Active; 'I' for Inactive)
REMARK    1  A    between atoms: N_9  and  C_10 
REMARK    2  A    between atoms: C_10  and  C_11 
REMARK    3  A    between atoms: C_15  and  C_16 
ROOT
HETATM    1  C   UNL     1     -21.712 -11.565  -6.733  1.00  0.00     0.050 C 
HETATM    2  C   UNL     1     -20.287 -12.025  -6.774  1.00  0.00    -0.033 A 
HETATM    3  C   UNL     1     -19.920 -12.912  -7.814  1.00  0.00     0.033 A 
HETATM    4  C   UNL     1     -18.601 -13.358  -7.973  1.00  0.00     0.035 A 
HETATM    5 CL   UNL     1     -18.213 -14.452  -9.242  1.00  0.00    -0.084 Cl
HETATM    6  C   UNL     1     -17.601 -12.922  -7.115  1.00  0.00     0.036 A 
HETATM    7  C   UNL     1     -17.964 -12.071  -6.077  1.00  0.00     0.018 A 
HETATM    8  C   UNL     1     -19.293 -11.649  -5.871  1.00  0.00     0.053 A 
HETATM    9  N   UNL     1     -19.340 -10.898  -4.672  1.00  0.00    -0.310 N 
HETATM   10  C   UNL     1     -18.066 -10.805  -4.076  1.00  0.00     0.268 C 
HETATM   11  O   UNL     1     -17.801 -10.324  -2.982  1.00  0.00    -0.269 OA
HETATM   12  C   UNL     1     -17.071 -11.478  -5.029  1.00  0.00     0.227 A 
HETATM   13  N   UNL     1     -16.197 -12.443  -4.411  1.00  0.00    -0.313 N 
HETATM   14  C   UNL     1     -14.886 -12.043  -4.468  1.00  0.00     0.324 A 
HETATM   15  O   UNL     1     -13.950 -12.649  -3.981  1.00  0.00    -0.247 OA
HETATM   16  N   UNL     1     -14.810 -10.891  -5.174  1.00  0.00    -0.276 N 
HETATM   17  C   UNL     1     -16.050 -10.478  -5.564  1.00  0.00     0.268 A 
HETATM   18  O   UNL     1     -16.276  -9.477  -6.226  1.00  0.00    -0.269 OA
HETATM   19  H   UNL     1     -16.485 -13.235  -3.854  1.00  0.00     0.166 HD
HETATM   20  H   UNL     1     -13.952 -10.403  -5.370  1.00  0.00     0.173 HD
ENDROOT
BRANCH   9  21
HETATM   21  C   UNL     1     -20.516 -10.453  -3.951  1.00  0.00     0.171 C 
BRANCH  21  22
HETATM   22  C   UNL     1     -20.724  -8.951  -3.886  1.00  0.00    -0.039 A 
HETATM   23  C   UNL     1     -21.232  -8.297  -2.756  1.00  0.00     0.009 A 
HETATM   24  C   UNL     1     -21.473  -6.921  -2.778  1.00  0.00     0.001 A 
HETATM   25  C   UNL     1     -21.210  -6.175  -3.925  1.00  0.00     0.016 A 
HETATM   26  C   UNL     1     -20.681  -6.794  -5.065  1.00  0.00     0.048 A 
HETATM   27  C   UNL     1     -20.422  -8.177  -5.025  1.00  0.00     0.025 A 
BRANCH  26  28
HETATM   28  C   UNL     1     -20.415  -6.006  -6.326  1.00  0.00     0.417 C 
HETATM   29  F   UNL     1     -19.298  -6.405  -6.997  1.00  0.00    -0.166 F 
HETATM   30  F   UNL     1     -21.438  -6.092  -7.221  1.00  0.00    -0.166 F 
HETATM   31  F   UNL     1     -20.246  -4.676  -6.083  1.00  0.00    -0.166 F 
ENDBRANCH  26  28
ENDBRANCH  21  22
ENDBRANCH   9  21
TORSDOF 3
ENDMDL
MODEL 7
REMARK VINA RESULT:      -8.0      4.653      6.214
REMARK  3 active torsions:
REMARK  status: ('A' for Active; 'I' for Inactive)
REMARK    1  A    between atoms: N_9  and  C_10 
REMARK    2  A    between atoms: C_10  and  C_11 
REMARK    3  A    between atoms: C_15  and  C_16 
ROOT
HETATM    1  C   UNL     1     -20.650 -11.371   0.217  1.00  0.00     0.050 C 
HETATM    2  C   UNL     1     -19.325 -11.513  -0.468  1.00  0.00    -0.033 A 
HETATM    3  C   UNL     1     -18.190 -11.731   0.348  1.00  0.00     0.033 A 
HETATM    4  C   UNL     1     -16.915 -11.930  -0.197  1.00  0.00     0.035 A 
HETATM    5 CL   UNL     1     -15.566 -12.171   0.842  1.00  0.00    -0.084 Cl
HETATM    6  C   UNL     1     -16.731 -11.939  -1.572  1.00  0.00     0.036 A 
HETATM    7  C   UNL     1     -17.839 -11.699  -2.377  1.00  0.00     0.018 A 
HETATM    8  C   UNL     1     -19.121 -11.448  -1.846  1.00  0.00     0.053 A 
HETATM    9  N   UNL     1     -19.990 -11.126  -2.917  1.00  0.00    -0.310 N 
HETATM   10  C   UNL     1     -19.314 -11.162  -4.153  1.00  0.00     0.268 C 
HETATM   11  O   UNL     1     -19.757 -10.823  -5.242  1.00  0.00    -0.269 OA
HETATM   12  C   UNL     1     -17.887 -11.651  -3.874  1.00  0.00     0.227 A 
HETATM   13  N   UNL     1     -16.845 -10.843  -4.454  1.00  0.00    -0.313 N 
HETATM   14  C   UNL     1     -16.134 -11.540  -5.398  1.00  0.00     0.324 A 
HETATM   15  O   UNL     1     -15.232 -11.080  -6.072  1.00  0.00    -0.247 OA
HETATM   16  N   UNL     1     -16.585 -12.816  -5.432  1.00  0.00    -0.276 N 
HETATM   17  C   UNL     1     -17.615 -12.989  -4.555  1.00  0.00     0.268 A 
HETATM   18  O   UNL     1     -18.201 -14.044  -4.368  1.00  0.00    -0.269 OA
HETATM   19  H   UNL     1     -16.726  -9.848  -4.331  1.00  0.00     0.166 HD
HETATM   20  H   UNL     1     -16.214 -13.531  -6.034  1.00  0.00     0.173 HD
ENDROOT
BRANCH   9  21
HETATM   21  C   UNL     1     -21.332 -10.587  -2.836  1.00  0.00     0.171 C 
BRANCH  21  22
HETATM   22  C   UNL     1     -21.433  -9.083  -2.659  1.00  0.00    -0.039 A 
HETATM   23  C   UNL     1     -21.835  -8.479  -1.460  1.00  0.00     0.009 A 
HETATM   24  C   UNL     1     -21.981  -7.092  -1.374  1.00  0.00     0.001 A 
HETATM   25  C   UNL     1     -21.725  -6.284  -2.482  1.00  0.00     0.016 A 
HETATM   26  C   UNL     1     -21.299  -6.854  -3.688  1.00  0.00     0.048 A 
HETATM   27  C   UNL     1     -21.135  -8.251  -3.757  1.00  0.00     0.025 A 
BRANCH  26  28
HETATM   28  C   UNL     1     -21.043  -5.997  -4.905  1.00  0.00     0.417 C 
HETATM   29  F   UNL     1     -20.451  -4.802  -4.620  1.00  0.00    -0.166 F 
HETATM   30  F   UNL     1     -20.231  -6.606  -5.813  1.00  0.00    -0.166 F 
HETATM   31  F   UNL     1     -22.188  -5.691  -5.578  1.00  0.00    -0.166 F 
ENDBRANCH  26  28
ENDBRANCH  21  22
ENDBRANCH   9  21
TORSDOF 3
ENDMDL
MODEL 8
REMARK VINA RESULT:      -7.9      3.747      5.484
REMARK  3 active torsions:
REMARK  status: ('A' for Active; 'I' for Inactive)
REMARK    1  A    between atoms: N_9  and  C_10 
REMARK    2  A    between atoms: C_10  and  C_11 
REMARK    3  A    between atoms: C_15  and  C_16 
ROOT
HETATM    1  C   UNL     1     -21.599 -12.019  -6.754  1.00  0.00     0.050 C 
HETATM    2  C   UNL     1     -20.157 -12.405  -6.882  1.00  0.00    -0.033 A 
HETATM    3  C   UNL     1     -19.775 -13.119  -8.042  1.00  0.00     0.033 A 
HETATM    4  C   UNL     1     -18.442 -13.480  -8.282  1.00  0.00     0.035 A 
HETATM    5 CL   UNL     1     -18.034 -14.365  -9.699  1.00  0.00    -0.084 Cl
HETATM    6  C   UNL     1     -17.444 -13.124  -7.386  1.00  0.00     0.036 A 
HETATM    7  C   UNL     1     -17.820 -12.445  -6.232  1.00  0.00     0.018 A 
HETATM    8  C   UNL     1     -19.161 -12.117  -5.949  1.00  0.00     0.053 A 
HETATM    9  N   UNL     1     -19.215 -11.545  -4.655  1.00  0.00    -0.310 N 
HETATM   10  C   UNL     1     -17.934 -11.480  -4.070  1.00  0.00     0.268 C 
HETATM   11  O   UNL     1     -17.667 -11.147  -2.924  1.00  0.00    -0.269 OA
HETATM   12  C   UNL     1     -16.931 -11.968  -5.124  1.00  0.00     0.227 A 
HETATM   13  N   UNL     1     -16.005 -12.970  -4.661  1.00  0.00    -0.313 N 
HETATM   14  C   UNL     1     -14.713 -12.508  -4.681  1.00  0.00     0.324 A 
HETATM   15  O   UNL     1     -13.743 -13.134  -4.298  1.00  0.00    -0.247 OA
HETATM   16  N   UNL     1     -14.700 -11.266  -5.217  1.00  0.00    -0.276 N 
HETATM   17  C   UNL     1     -15.965 -10.858  -5.526  1.00  0.00     0.268 A 
HETATM   18  O   UNL     1     -16.246  -9.784  -6.036  1.00  0.00    -0.269 OA
HETATM   19  H   UNL     1     -16.248 -13.844  -4.219  1.00  0.00     0.166 HD
HETATM   20  H   UNL     1     -13.868 -10.717  -5.354  1.00  0.00     0.173 HD
ENDROOT
BRANCH   9  21
HETATM   21  C   UNL     1     -20.393 -11.259  -3.861  1.00  0.00     0.171 C 
BRANCH  21  22
HETATM   22  C   UNL     1     -20.730  -9.790  -3.681  1.00  0.00    -0.039 A 
HETATM   23  C   UNL     1     -20.521  -8.829  -4.678  1.00  0.00     0.009 A 
HETATM   24  C   UNL     1     -20.781  -7.478  -4.433  1.00  0.00     0.001 A 
HETATM   25  C   UNL     1     -21.256  -7.065  -3.190  1.00  0.00     0.016 A 
HETATM   26  C   UNL     1     -21.497  -8.003  -2.178  1.00  0.00     0.048 A 
HETATM   27  C   UNL     1     -21.253  -9.363  -2.443  1.00  0.00     0.025 A 
BRANCH  26  28
HETATM   28  C   UNL     1     -21.987  -7.569  -0.816  1.00  0.00     0.417 C 
HETATM   29  F   UNL     1     -22.310  -6.246  -0.746  1.00  0.00    -0.166 F 
HETATM   30  F   UNL     1     -23.101  -8.246  -0.421  1.00  0.00    -0.166 F 
HETATM   31  F   UNL     1     -21.061  -7.775   0.162  1.00  0.00    -0.166 F 
ENDBRANCH  26  28
ENDBRANCH  21  22
ENDBRANCH   9  21
TORSDOF 3
ENDMDL
MODEL 9
REMARK VINA RESULT:      -7.9      4.780      6.833
REMARK  3 active torsions:
REMARK  status: ('A' for Active; 'I' for Inactive)
REMARK    1  A    between atoms: N_9  and  C_10 
REMARK    2  A    between atoms: C_10  and  C_11 
REMARK    3  A    between atoms: C_15  and  C_16 
ROOT
HETATM    1  C   UNL     1     -24.217 -12.017  -1.413  1.00  0.00     0.050 C 
HETATM    2  C   UNL     1     -23.014 -12.384  -0.599  1.00  0.00    -0.033 A 
HETATM    3  C   UNL     1     -23.238 -13.037   0.635  1.00  0.00     0.033 A 
HETATM    4  C   UNL     1     -22.180 -13.470   1.446  1.00  0.00     0.035 A 
HETATM    5 CL   UNL     1     -22.509 -14.242   2.947  1.00  0.00    -0.084 Cl
HETATM    6  C   UNL     1     -20.865 -13.284   1.045  1.00  0.00     0.036 A 
HETATM    7  C   UNL     1     -20.641 -12.619  -0.155  1.00  0.00     0.018 A 
HETATM    8  C   UNL     1     -21.690 -12.133  -0.960  1.00  0.00     0.053 A 
HETATM    9  N   UNL     1     -21.125 -11.406  -2.036  1.00  0.00    -0.310 N 
HETATM   10  C   UNL     1     -19.717 -11.403  -1.968  1.00  0.00     0.268 C 
HETATM   11  O   UNL     1     -18.950 -10.770  -2.681  1.00  0.00    -0.269 OA
HETATM   12  C   UNL     1     -19.320 -12.296  -0.786  1.00  0.00     0.227 A 
HETATM   13  N   UNL     1     -18.377 -11.706   0.130  1.00  0.00    -0.313 N 
HETATM   14  C   UNL     1     -17.187 -12.389   0.137  1.00  0.00     0.324 A 
HETATM   15  O   UNL     1     -16.206 -12.075   0.784  1.00  0.00    -0.247 OA
HETATM   16  N   UNL     1     -17.299 -13.471  -0.668  1.00  0.00    -0.276 N 
HETATM   17  C   UNL     1     -18.530 -13.516  -1.253  1.00  0.00     0.268 A 
HETATM   18  O   UNL     1     -18.910 -14.392  -2.014  1.00  0.00    -0.269 OA
HETATM   19  H   UNL     1     -18.480 -10.816   0.597  1.00  0.00     0.166 HD
HETATM   20  H   UNL     1     -16.564 -14.142  -0.820  1.00  0.00     0.173 HD
ENDROOT
BRANCH   9  21
HETATM   21  C   UNL     1     -21.811 -10.552  -2.985  1.00  0.00     0.171 C 
BRANCH  21  22
HETATM   22  C   UNL     1     -21.705  -9.060  -2.728  1.00  0.00    -0.039 A 
HETATM   23  C   UNL     1     -21.963  -8.477  -1.481  1.00  0.00     0.009 A 
HETATM   24  C   UNL     1     -21.922  -7.090  -1.319  1.00  0.00     0.001 A 
HETATM   25  C   UNL     1     -21.621  -6.261  -2.399  1.00  0.00     0.016 A 
HETATM   26  C   UNL     1     -21.336  -6.812  -3.655  1.00  0.00     0.048 A 
HETATM   27  C   UNL     1     -21.358  -8.213  -3.800  1.00  0.00     0.025 A 
BRANCH  26  28
HETATM   28  C   UNL     1     -21.034  -5.928  -4.841  1.00  0.00     0.417 C 
HETATM   29  F   UNL     1     -22.138  -5.579  -5.561  1.00  0.00    -0.166 F 
HETATM   30  F   UNL     1     -20.439  -4.757  -4.482  1.00  0.00    -0.166 F 
HETATM   31  F   UNL     1     -20.185  -6.518  -5.729  1.00  0.00    -0.166 F 
ENDBRANCH  26  28
ENDBRANCH  21  22
ENDBRANCH   9  21
TORSDOF 3
ENDMDL
