MODEL 1
REMARK VINA RESULT:      -6.9      0.000      0.000
REMARK  8 active torsions:
REMARK  status: ('A' for Active; 'I' for Inactive)
REMARK    1  A    between atoms: C_2  and  C_5 
REMARK    2  A    between atoms: C_8  and  C_9 
REMARK    3  A    between atoms: C_9  and  N_10 
REMARK    4  A    between atoms: N_10  and  C_11 
REMARK    5  A    between atoms: N_13  and  C_14 
REMARK    6  A    between atoms: C_14  and  C_15 
REMARK    7  A    between atoms: C_18  and  N_19 
REMARK    8  A    between atoms: N_19  and  S_20 
ROOT
HETATM    1  C   UNL     1     -22.783 -14.588  -3.556  1.00  0.00     0.168 C 
HETATM    2  S   UNL     1     -23.896 -15.426  -4.472  1.00  0.00    -0.041 SA
HETATM    3  N   UNL     1     -21.938 -13.740  -4.203  1.00  0.00    -0.363 N 
HETATM    4  H   UNL     1     -22.112 -13.673  -5.200  1.00  0.00     0.162 HD
ENDROOT
BRANCH   3   5
HETATM    5  C   UNL     1     -20.729 -13.117  -3.703  1.00  0.00     0.160 C 
BRANCH   5   6
HETATM    6  C   UNL     1     -20.758 -11.606  -3.686  1.00  0.00    -0.037 A 
HETATM    7  C   UNL     1     -21.957 -10.875  -3.748  1.00  0.00     0.011 A 
HETATM    8  C   UNL     1     -21.946  -9.474  -3.815  1.00  0.00     0.034 A 
HETATM    9  C   UNL     1     -20.734  -8.796  -3.862  1.00  0.00     0.081 A 
HETATM   10  C   UNL     1     -19.542  -9.513  -3.761  1.00  0.00     0.144 A 
HETATM   11  F   UNL     1     -18.369  -8.862  -3.768  1.00  0.00    -0.204 F 
HETATM   12  C   UNL     1     -19.545 -10.902  -3.675  1.00  0.00     0.053 A 
BRANCH   9  13
HETATM   13  N   UNL     1     -20.706  -7.381  -4.049  1.00  0.00    -0.282 N 
HETATM   14  H   UNL     1     -20.846  -6.823  -3.206  1.00  0.00     0.178 HD
BRANCH  13  15
HETATM   15  S   UNL     1     -21.468  -6.704  -5.380  1.00  0.00     0.227 S 
HETATM   16  C   UNL     1     -20.531  -5.221  -5.700  1.00  0.00     0.186 C 
HETATM   17  O   UNL     1     -21.216  -7.611  -6.480  1.00  0.00    -0.206 OA
HETATM   18  O   UNL     1     -22.819  -6.324  -5.016  1.00  0.00    -0.206 OA
ENDBRANCH  13  15
ENDBRANCH   9  13
ENDBRANCH   5   6
ENDBRANCH   3   5
BRANCH   1  19
HETATM   19  N   UNL     1     -22.640 -14.655  -2.200  1.00  0.00    -0.363 N 
HETATM   20  H   UNL     1     -21.696 -14.647  -1.851  1.00  0.00     0.162 HD
BRANCH  19  21
HETATM   21  C   UNL     1     -23.608 -14.110  -1.264  1.00  0.00     0.160 C 
BRANCH  21  22
HETATM   22  C   UNL     1     -23.182 -12.763  -0.745  1.00  0.00    -0.041 A 
HETATM   23  C   UNL     1     -21.894 -12.572  -0.240  1.00  0.00     0.009 A 
HETATM   24  C   UNL     1     -21.469 -11.303   0.172  1.00  0.00     0.008 A 
HETATM   25  C   UNL     1     -22.312 -10.182   0.082  1.00  0.00    -0.051 A 
HETATM   26  C   UNL     1     -23.625 -10.403  -0.367  1.00  0.00     0.008 A 
HETATM   27  C   UNL     1     -24.052 -11.672  -0.780  1.00  0.00     0.009 A 
BRANCH  25  28
HETATM   28  C   UNL     1     -21.820  -8.780   0.490  1.00  0.00    -0.024 C 
HETATM   29  C   UNL     1     -20.904  -8.823   1.737  1.00  0.00     0.019 C 
HETATM   30  C   UNL     1     -23.046  -7.903   0.804  1.00  0.00     0.019 C 
HETATM   31  C   UNL     1     -20.994  -8.090  -0.622  1.00  0.00     0.019 C 
ENDBRANCH  25  28
ENDBRANCH  21  22
ENDBRANCH  19  21
ENDBRANCH   1  19
TORSDOF 8
ENDMDL
MODEL 2
REMARK VINA RESULT:      -6.8      2.402      4.584
REMARK  8 active torsions:
REMARK  status: ('A' for Active; 'I' for Inactive)
REMARK    1  A    between atoms: C_2  and  C_5 
REMARK    2  A    between atoms: C_8  and  C_9 
REMARK    3  A    between atoms: C_9  and  N_10 
REMARK    4  A    between atoms: N_10  and  C_11 
REMARK    5  A    between atoms: N_13  and  C_14 
REMARK    6  A    between atoms: C_14  and  C_15 
REMARK    7  A    between atoms: C_18  and  N_19 
REMARK    8  A    between atoms: N_19  and  S_20 
ROOT
HETATM    1  C   UNL     1     -22.802 -11.419  -0.172  1.00  0.00     0.168 C 
HETATM    2  S   UNL     1     -23.876 -12.426  -0.956  1.00  0.00    -0.041 SA
HETATM    3  N   UNL     1     -23.166 -10.121   0.009  1.00  0.00    -0.363 N 
HETATM    4  H   UNL     1     -24.101  -9.909  -0.323  1.00  0.00     0.162 HD
ENDROOT
BRANCH   3   5
HETATM    5  C   UNL     1     -22.337  -8.998   0.398  1.00  0.00     0.160 C 
BRANCH   5   6
HETATM    6  C   UNL     1     -21.905  -8.107  -0.744  1.00  0.00    -0.037 A 
HETATM    7  C   UNL     1     -22.462  -6.834  -0.959  1.00  0.00     0.011 A 
HETATM    8  C   UNL     1     -22.099  -6.067  -2.075  1.00  0.00     0.034 A 
HETATM    9  C   UNL     1     -21.207  -6.584  -3.008  1.00  0.00     0.081 A 
HETATM   10  C   UNL     1     -20.621  -7.829  -2.779  1.00  0.00     0.144 A 
HETATM   11  F   UNL     1     -19.732  -8.318  -3.656  1.00  0.00    -0.204 F 
HETATM   12  C   UNL     1     -20.962  -8.588  -1.663  1.00  0.00     0.053 A 
BRANCH   9  13
HETATM   13  N   UNL     1     -20.921  -5.865  -4.207  1.00  0.00    -0.282 N 
HETATM   14  H   UNL     1     -20.725  -4.870  -4.088  1.00  0.00     0.178 HD
BRANCH  13  15
HETATM   15  S   UNL     1     -21.821  -6.163  -5.589  1.00  0.00     0.227 S 
HETATM   16  C   UNL     1     -21.443  -4.781  -6.651  1.00  0.00     0.186 C 
HETATM   17  O   UNL     1     -21.232  -7.338  -6.196  1.00  0.00    -0.206 OA
HETATM   18  O   UNL     1     -23.233  -6.116  -5.260  1.00  0.00    -0.206 OA
ENDBRANCH  13  15
ENDBRANCH   9  13
ENDBRANCH   5   6
ENDBRANCH   3   5
BRANCH   1  19
HETATM   19  N   UNL     1     -21.582 -11.773   0.327  1.00  0.00    -0.363 N 
HETATM   20  H   UNL     1     -21.478 -11.719   1.327  1.00  0.00     0.162 HD
BRANCH  19  21
HETATM   21  C   UNL     1     -20.720 -12.765  -0.292  1.00  0.00     0.160 C 
BRANCH  21  22
HETATM   22  C   UNL     1     -19.800 -12.145  -1.309  1.00  0.00    -0.041 A 
HETATM   23  C   UNL     1     -18.567 -11.614  -0.922  1.00  0.00     0.009 A 
HETATM   24  C   UNL     1     -17.677 -11.108  -1.876  1.00  0.00     0.008 A 
HETATM   25  C   UNL     1     -17.983 -11.125  -3.248  1.00  0.00    -0.051 A 
HETATM   26  C   UNL     1     -19.253 -11.601  -3.614  1.00  0.00     0.008 A 
HETATM   27  C   UNL     1     -20.145 -12.110  -2.661  1.00  0.00     0.009 A 
BRANCH  25  28
HETATM   28  C   UNL     1     -16.977 -10.611  -4.296  1.00  0.00    -0.024 C 
HETATM   29  C   UNL     1     -16.148 -11.760  -4.920  1.00  0.00     0.019 C 
HETATM   30  C   UNL     1     -16.016  -9.623  -3.610  1.00  0.00     0.019 C 
HETATM   31  C   UNL     1     -17.663  -9.889  -5.479  1.00  0.00     0.019 C 
ENDBRANCH  25  28
ENDBRANCH  21  22
ENDBRANCH  19  21
ENDBRANCH   1  19
TORSDOF 8
ENDMDL
MODEL 3
REMARK VINA RESULT:      -6.8      3.651      6.030
REMARK  8 active torsions:
REMARK  status: ('A' for Active; 'I' for Inactive)
REMARK    1  A    between atoms: C_2  and  C_5 
REMARK    2  A    between atoms: C_8  and  C_9 
REMARK    3  A    between atoms: C_9  and  N_10 
REMARK    4  A    between atoms: N_10  and  C_11 
REMARK    5  A    between atoms: N_13  and  C_14 
REMARK    6  A    between atoms: C_14  and  C_15 
REMARK    7  A    between atoms: C_18  and  N_19 
REMARK    8  A    between atoms: N_19  and  S_20 
ROOT
HETATM    1  C   UNL     1     -20.713  -8.660  -4.952  1.00  0.00     0.168 C 
HETATM    2  S   UNL     1     -20.228 -10.213  -5.318  1.00  0.00    -0.041 SA
HETATM    3  N   UNL     1     -20.278  -7.653  -5.757  1.00  0.00    -0.363 N 
HETATM    4  H   UNL     1     -19.724  -7.971  -6.545  1.00  0.00     0.162 HD
ENDROOT
BRANCH   3   5
HETATM    5  C   UNL     1     -20.318  -6.225  -5.515  1.00  0.00     0.160 C 
BRANCH   5   6
HETATM    6  C   UNL     1     -20.916  -5.412  -6.639  1.00  0.00    -0.037 A 
HETATM    7  C   UNL     1     -22.255  -4.981  -6.628  1.00  0.00     0.011 A 
HETATM    8  C   UNL     1     -22.803  -4.300  -7.724  1.00  0.00     0.034 A 
HETATM    9  C   UNL     1     -22.029  -4.080  -8.858  1.00  0.00     0.081 A 
HETATM   10  C   UNL     1     -20.690  -4.469  -8.860  1.00  0.00     0.144 A 
HETATM   11  F   UNL     1     -19.927  -4.228  -9.936  1.00  0.00    -0.204 F 
HETATM   12  C   UNL     1     -20.133  -5.129  -7.768  1.00  0.00     0.053 A 
BRANCH   9  13
HETATM   13  N   UNL     1     -22.608  -3.495 -10.024  1.00  0.00    -0.282 N 
HETATM   14  H   UNL     1     -22.282  -2.555 -10.252  1.00  0.00     0.178 HD
BRANCH  13  15
HETATM   15  S   UNL     1     -24.249  -3.675 -10.317  1.00  0.00     0.227 S 
HETATM   16  C   UNL     1     -24.455  -3.061 -11.979  1.00  0.00     0.186 C 
HETATM   17  O   UNL     1     -24.485  -5.103 -10.359  1.00  0.00    -0.206 OA
HETATM   18  O   UNL     1     -24.993  -2.817  -9.416  1.00  0.00    -0.206 OA
ENDBRANCH  13  15
ENDBRANCH   9  13
ENDBRANCH   5   6
ENDBRANCH   3   5
BRANCH   1  19
HETATM   19  N   UNL     1     -21.527  -8.292  -3.920  1.00  0.00    -0.363 N 
HETATM   20  H   UNL     1     -22.515  -8.424  -4.064  1.00  0.00     0.162 HD
BRANCH  19  21
HETATM   21  C   UNL     1     -21.132  -8.357  -2.524  1.00  0.00     0.160 C 
BRANCH  21  22
HETATM   22  C   UNL     1     -21.653  -9.601  -1.856  1.00  0.00    -0.041 A 
HETATM   23  C   UNL     1     -22.615 -10.395  -2.484  1.00  0.00     0.009 A 
HETATM   24  C   UNL     1     -23.044 -11.592  -1.900  1.00  0.00     0.008 A 
HETATM   25  C   UNL     1     -22.519 -12.042  -0.676  1.00  0.00    -0.051 A 
HETATM   26  C   UNL     1     -21.601 -11.200  -0.026  1.00  0.00     0.008 A 
HETATM   27  C   UNL     1     -21.169 -10.002  -0.609  1.00  0.00     0.009 A 
BRANCH  25  28
HETATM   28  C   UNL     1     -22.960 -13.386  -0.065  1.00  0.00    -0.024 C 
HETATM   29  C   UNL     1     -21.833 -14.446  -0.114  1.00  0.00     0.019 C 
HETATM   30  C   UNL     1     -24.170 -13.912  -0.858  1.00  0.00     0.019 C 
HETATM   31  C   UNL     1     -23.364 -13.261   1.423  1.00  0.00     0.019 C 
ENDBRANCH  25  28
ENDBRANCH  21  22
ENDBRANCH  19  21
ENDBRANCH   1  19
TORSDOF 8
ENDMDL
MODEL 4
REMARK VINA RESULT:      -6.7      3.634      5.566
REMARK  8 active torsions:
REMARK  status: ('A' for Active; 'I' for Inactive)
REMARK    1  A    between atoms: C_2  and  C_5 
REMARK    2  A    between atoms: C_8  and  C_9 
REMARK    3  A    between atoms: C_9  and  N_10 
REMARK    4  A    between atoms: N_10  and  C_11 
REMARK    5  A    between atoms: N_13  and  C_14 
REMARK    6  A    between atoms: C_14  and  C_15 
REMARK    7  A    between atoms: C_18  and  N_19 
REMARK    8  A    between atoms: N_19  and  S_20 
ROOT
HETATM    1  C   UNL     1     -18.520  -9.424  -4.977  1.00  0.00     0.168 C 
HETATM    2  S   UNL     1     -17.731 -10.495  -5.982  1.00  0.00    -0.041 SA
HETATM    3  N   UNL     1     -19.459  -8.610  -5.530  1.00  0.00    -0.363 N 
HETATM    4  H   UNL     1     -19.615  -8.778  -6.518  1.00  0.00     0.162 HD
ENDROOT
BRANCH   3   5
HETATM    5  C   UNL     1     -20.079  -7.431  -4.959  1.00  0.00     0.160 C 
BRANCH   5   6
HETATM    6  C   UNL     1     -20.646  -6.463  -5.971  1.00  0.00    -0.037 A 
HETATM    7  C   UNL     1     -19.866  -5.907  -7.001  1.00  0.00     0.011 A 
HETATM    8  C   UNL     1     -20.401  -4.947  -7.872  1.00  0.00     0.034 A 
HETATM    9  C   UNL     1     -21.707  -4.505  -7.695  1.00  0.00     0.081 A 
HETATM   10  C   UNL     1     -22.497  -5.081  -6.701  1.00  0.00     0.144 A 
HETATM   11  F   UNL     1     -23.769  -4.686  -6.548  1.00  0.00    -0.204 F 
HETATM   12  C   UNL     1     -21.980  -6.048  -5.843  1.00  0.00     0.053 A 
BRANCH   9  13
HETATM   13  N   UNL     1     -22.224  -3.445  -8.499  1.00  0.00    -0.282 N 
HETATM   14  H   UNL     1     -22.650  -2.672  -7.985  1.00  0.00     0.178 HD
BRANCH  13  15
HETATM   15  S   UNL     1     -23.067  -3.802  -9.903  1.00  0.00     0.227 S 
HETATM   16  C   UNL     1     -24.706  -3.173  -9.588  1.00  0.00     0.186 C 
HETATM   17  O   UNL     1     -22.484  -2.968 -10.933  1.00  0.00    -0.206 OA
HETATM   18  O   UNL     1     -23.150  -5.241 -10.059  1.00  0.00    -0.206 OA
ENDBRANCH  13  15
ENDBRANCH   9  13
ENDBRANCH   5   6
ENDBRANCH   3   5
BRANCH   1  19
HETATM   19  N   UNL     1     -18.329  -9.291  -3.632  1.00  0.00    -0.363 N 
HETATM   20  H   UNL     1     -18.750  -8.484  -3.201  1.00  0.00     0.162 HD
BRANCH  19  21
HETATM   21  C   UNL     1     -18.178 -10.417  -2.728  1.00  0.00     0.160 C 
BRANCH  21  22
HETATM   22  C   UNL     1     -19.503 -10.873  -2.180  1.00  0.00    -0.041 A 
HETATM   23  C   UNL     1     -19.694 -12.202  -1.795  1.00  0.00     0.009 A 
HETATM   24  C   UNL     1     -20.900 -12.610  -1.213  1.00  0.00     0.008 A 
HETATM   25  C   UNL     1     -21.950 -11.704  -0.985  1.00  0.00    -0.051 A 
HETATM   26  C   UNL     1     -21.766 -10.386  -1.437  1.00  0.00     0.008 A 
HETATM   27  C   UNL     1     -20.560  -9.974  -2.019  1.00  0.00     0.009 A 
BRANCH  25  28
HETATM   28  C   UNL     1     -23.254 -12.151  -0.298  1.00  0.00    -0.024 C 
HETATM   29  C   UNL     1     -24.058 -13.149  -1.167  1.00  0.00     0.019 C 
HETATM   30  C   UNL     1     -24.124 -10.907  -0.039  1.00  0.00     0.019 C 
HETATM   31  C   UNL     1     -23.004 -12.866   1.051  1.00  0.00     0.019 C 
ENDBRANCH  25  28
ENDBRANCH  21  22
ENDBRANCH  19  21
ENDBRANCH   1  19
TORSDOF 8
ENDMDL
MODEL 5
REMARK VINA RESULT:      -6.6      2.623      4.919
REMARK  8 active torsions:
REMARK  status: ('A' for Active; 'I' for Inactive)
REMARK    1  A    between atoms: C_2  and  C_5 
REMARK    2  A    between atoms: C_8  and  C_9 
REMARK    3  A    between atoms: C_9  and  N_10 
REMARK    4  A    between atoms: N_10  and  C_11 
REMARK    5  A    between atoms: N_13  and  C_14 
REMARK    6  A    between atoms: C_14  and  C_15 
REMARK    7  A    between atoms: C_18  and  N_19 
REMARK    8  A    between atoms: N_19  and  S_20 
ROOT
HETATM    1  C   UNL     1     -21.901 -11.230   0.242  1.00  0.00     0.168 C 
HETATM    2  S   UNL     1     -23.208 -12.265   0.179  1.00  0.00    -0.041 SA
HETATM    3  N   UNL     1     -22.143  -9.896   0.120  1.00  0.00    -0.363 N 
HETATM    4  H   UNL     1     -23.127  -9.664   0.046  1.00  0.00     0.162 HD
ENDROOT
BRANCH   3   5
HETATM    5  C   UNL     1     -21.196  -8.829  -0.132  1.00  0.00     0.160 C 
BRANCH   5   6
HETATM    6  C   UNL     1     -21.402  -8.096  -1.437  1.00  0.00    -0.037 A 
HETATM    7  C   UNL     1     -21.827  -6.757  -1.490  1.00  0.00     0.011 A 
HETATM    8  C   UNL     1     -22.090  -6.131  -2.717  1.00  0.00     0.034 A 
HETATM    9  C   UNL     1     -21.971  -6.853  -3.899  1.00  0.00     0.081 A 
HETATM   10  C   UNL     1     -21.512  -8.169  -3.856  1.00  0.00     0.144 A 
HETATM   11  F   UNL     1     -21.360  -8.860  -4.996  1.00  0.00    -0.204 F 
HETATM   12  C   UNL     1     -21.230  -8.791  -2.643  1.00  0.00     0.053 A 
BRANCH   9  13
HETATM   13  N   UNL     1     -22.350  -6.265  -5.144  1.00  0.00    -0.282 N 
HETATM   14  H   UNL     1     -23.039  -6.789  -5.686  1.00  0.00     0.178 HD
BRANCH  13  15
HETATM   15  S   UNL     1     -21.181  -5.571  -6.125  1.00  0.00     0.227 S 
HETATM   16  C   UNL     1     -22.103  -4.442  -7.152  1.00  0.00     0.186 C 
HETATM   17  O   UNL     1     -20.357  -4.769  -5.245  1.00  0.00    -0.206 OA
HETATM   18  O   UNL     1     -20.600  -6.593  -6.973  1.00  0.00    -0.206 OA
ENDBRANCH  13  15
ENDBRANCH   9  13
ENDBRANCH   5   6
ENDBRANCH   3   5
BRANCH   1  19
HETATM   19  N   UNL     1     -20.597 -11.588   0.421  1.00  0.00    -0.363 N 
HETATM   20  H   UNL     1     -20.248 -11.540   1.365  1.00  0.00     0.162 HD
BRANCH  19  21
HETATM   21  C   UNL     1     -19.917 -12.577  -0.398  1.00  0.00     0.160 C 
BRANCH  21  22
HETATM   22  C   UNL     1     -19.442 -11.989  -1.699  1.00  0.00    -0.041 A 
HETATM   23  C   UNL     1     -18.385 -11.077  -1.722  1.00  0.00     0.009 A 
HETATM   24  C   UNL     1     -17.890 -10.589  -2.937  1.00  0.00     0.008 A 
HETATM   25  C   UNL     1     -18.425 -11.004  -4.169  1.00  0.00    -0.051 A 
HETATM   26  C   UNL     1     -19.530 -11.871  -4.125  1.00  0.00     0.008 A 
HETATM   27  C   UNL     1     -20.027 -12.362  -2.911  1.00  0.00     0.009 A 
BRANCH  25  28
HETATM   28  C   UNL     1     -17.842 -10.500  -5.502  1.00  0.00    -0.024 C 
HETATM   29  C   UNL     1     -18.229  -9.029  -5.790  1.00  0.00     0.019 C 
HETATM   30  C   UNL     1     -18.382 -11.386  -6.640  1.00  0.00     0.019 C 
HETATM   31  C   UNL     1     -16.296 -10.548  -5.534  1.00  0.00     0.019 C 
ENDBRANCH  25  28
ENDBRANCH  21  22
ENDBRANCH  19  21
ENDBRANCH   1  19
TORSDOF 8
ENDMDL
MODEL 6
REMARK VINA RESULT:      -6.6      4.502      7.374
REMARK  8 active torsions:
REMARK  status: ('A' for Active; 'I' for Inactive)
REMARK    1  A    between atoms: C_2  and  C_5 
REMARK    2  A    between atoms: C_8  and  C_9 
REMARK    3  A    between atoms: C_9  and  N_10 
REMARK    4  A    between atoms: N_10  and  C_11 
REMARK    5  A    between atoms: N_13  and  C_14 
REMARK    6  A    between atoms: C_14  and  C_15 
REMARK    7  A    between atoms: C_18  and  N_19 
REMARK    8  A    between atoms: N_19  and  S_20 
ROOT
HETATM    1  C   UNL     1     -20.401  -8.686  -2.898  1.00  0.00     0.168 C 
HETATM    2  S   UNL     1     -21.398  -8.820  -1.568  1.00  0.00    -0.041 SA
HETATM    3  N   UNL     1     -20.722  -7.757  -3.839  1.00  0.00    -0.363 N 
HETATM    4  H   UNL     1     -21.534  -7.197  -3.601  1.00  0.00     0.162 HD
ENDROOT
BRANCH   3   5
HETATM    5  C   UNL     1     -20.204  -7.622  -5.186  1.00  0.00     0.160 C 
BRANCH   5   6
HETATM    6  C   UNL     1     -20.731  -6.429  -5.949  1.00  0.00    -0.037 A 
HETATM    7  C   UNL     1     -22.043  -5.950  -5.785  1.00  0.00     0.011 A 
HETATM    8  C   UNL     1     -22.528  -4.894  -6.569  1.00  0.00     0.034 A 
HETATM    9  C   UNL     1     -21.720  -4.335  -7.552  1.00  0.00     0.081 A 
HETATM   10  C   UNL     1     -20.405  -4.780  -7.693  1.00  0.00     0.144 A 
HETATM   11  F   UNL     1     -19.607  -4.221  -8.615  1.00  0.00    -0.204 F 
HETATM   12  C   UNL     1     -19.909  -5.815  -6.905  1.00  0.00     0.053 A 
BRANCH   9  13
HETATM   13  N   UNL     1     -22.240  -3.342  -8.436  1.00  0.00    -0.282 N 
HETATM   14  H   UNL     1     -22.721  -2.562  -7.986  1.00  0.00     0.178 HD
BRANCH  13  15
HETATM   15  S   UNL     1     -22.998  -3.809  -9.856  1.00  0.00     0.227 S 
HETATM   16  C   UNL     1     -24.686  -3.277  -9.633  1.00  0.00     0.186 C 
HETATM   17  O   UNL     1     -22.425  -2.980 -10.897  1.00  0.00    -0.206 OA
HETATM   18  O   UNL     1     -22.982  -5.255  -9.955  1.00  0.00    -0.206 OA
ENDBRANCH  13  15
ENDBRANCH   9  13
ENDBRANCH   5   6
ENDBRANCH   3   5
BRANCH   1  19
HETATM   19  N   UNL     1     -19.271  -9.412  -3.136  1.00  0.00    -0.363 N 
HETATM   20  H   UNL     1     -19.219  -9.876  -4.028  1.00  0.00     0.162 HD
BRANCH  19  21
HETATM   21  C   UNL     1     -17.971  -9.077  -2.582  1.00  0.00     0.160 C 
BRANCH  21  22
HETATM   22  C   UNL     1     -16.901 -10.019  -3.063  1.00  0.00    -0.041 A 
HETATM   23  C   UNL     1     -16.261 -10.882  -2.171  1.00  0.00     0.009 A 
HETATM   24  C   UNL     1     -15.321 -11.814  -2.629  1.00  0.00     0.008 A 
HETATM   25  C   UNL     1     -14.999 -11.922  -3.993  1.00  0.00    -0.051 A 
HETATM   26  C   UNL     1     -15.603 -11.003  -4.867  1.00  0.00     0.008 A 
HETATM   27  C   UNL     1     -16.544 -10.071  -4.412  1.00  0.00     0.009 A 
BRANCH  25  28
HETATM   28  C   UNL     1     -14.002 -12.984  -4.494  1.00  0.00    -0.024 C 
HETATM   29  C   UNL     1     -12.909 -13.301  -3.443  1.00  0.00     0.019 C 
HETATM   30  C   UNL     1     -13.323 -12.455  -5.771  1.00  0.00     0.019 C 
HETATM   31  C   UNL     1     -14.681 -14.335  -4.822  1.00  0.00     0.019 C 
ENDBRANCH  25  28
ENDBRANCH  21  22
ENDBRANCH  19  21
ENDBRANCH   1  19
TORSDOF 8
ENDMDL
MODEL 7
REMARK VINA RESULT:      -6.5      2.316      4.638
REMARK  8 active torsions:
REMARK  status: ('A' for Active; 'I' for Inactive)
REMARK    1  A    between atoms: C_2  and  C_5 
REMARK    2  A    between atoms: C_8  and  C_9 
REMARK    3  A    between atoms: C_9  and  N_10 
REMARK    4  A    between atoms: N_10  and  C_11 
REMARK    5  A    between atoms: N_13  and  C_14 
REMARK    6  A    between atoms: C_14  and  C_15 
REMARK    7  A    between atoms: C_18  and  N_19 
REMARK    8  A    between atoms: N_19  and  S_20 
ROOT
HETATM    1  C   UNL     1     -22.184 -11.378   0.413  1.00  0.00     0.168 C 
HETATM    2  S   UNL     1     -21.429 -12.825   0.755  1.00  0.00    -0.041 SA
HETATM    3  N   UNL     1     -21.480 -10.232   0.617  1.00  0.00    -0.363 N 
HETATM    4  H   UNL     1     -20.525 -10.387   0.922  1.00  0.00     0.162 HD
ENDROOT
BRANCH   3   5
HETATM    5  C   UNL     1     -21.971  -8.869   0.665  1.00  0.00     0.160 C 
BRANCH   5   6
HETATM    6  C   UNL     1     -21.654  -8.041  -0.559  1.00  0.00    -0.037 A 
HETATM    7  C   UNL     1     -22.330  -6.843  -0.853  1.00  0.00     0.011 A 
HETATM    8  C   UNL     1     -22.071  -6.141  -2.039  1.00  0.00     0.034 A 
HETATM    9  C   UNL     1     -21.164  -6.653  -2.960  1.00  0.00     0.081 A 
HETATM   10  C   UNL     1     -20.462  -7.819  -2.656  1.00  0.00     0.144 A 
HETATM   11  F   UNL     1     -19.558  -8.299  -3.523  1.00  0.00    -0.204 F 
HETATM   12  C   UNL     1     -20.699  -8.512  -1.472  1.00  0.00     0.053 A 
BRANCH   9  13
HETATM   13  N   UNL     1     -20.979  -6.013  -4.223  1.00  0.00    -0.282 N 
HETATM   14  H   UNL     1     -20.819  -5.005  -4.185  1.00  0.00     0.178 HD
BRANCH  13  15
HETATM   15  S   UNL     1     -21.945  -6.444  -5.522  1.00  0.00     0.227 S 
HETATM   16  C   UNL     1     -21.530  -5.248  -6.778  1.00  0.00     0.186 C 
HETATM   17  O   UNL     1     -21.445  -7.726  -5.975  1.00  0.00    -0.206 OA
HETATM   18  O   UNL     1     -23.338  -6.267  -5.163  1.00  0.00    -0.206 OA
ENDBRANCH  13  15
ENDBRANCH   9  13
ENDBRANCH   5   6
ENDBRANCH   3   5
BRANCH   1  19
HETATM   19  N   UNL     1     -23.450 -11.224  -0.073  1.00  0.00    -0.363 N 
HETATM   20  H   UNL     1     -23.808 -10.283  -0.094  1.00  0.00     0.162 HD
BRANCH  19  21
HETATM   21  C   UNL     1     -24.029 -12.086  -1.088  1.00  0.00     0.160 C 
BRANCH  21  22
HETATM   22  C   UNL     1     -23.179 -12.133  -2.329  1.00  0.00    -0.041 A 
HETATM   23  C   UNL     1     -22.849 -10.958  -3.008  1.00  0.00     0.009 A 
HETATM   24  C   UNL     1     -21.995 -10.991  -4.117  1.00  0.00     0.008 A 
HETATM   25  C   UNL     1     -21.434 -12.195  -4.577  1.00  0.00    -0.051 A 
HETATM   26  C   UNL     1     -21.828 -13.375  -3.923  1.00  0.00     0.008 A 
HETATM   27  C   UNL     1     -22.682 -13.345  -2.813  1.00  0.00     0.009 A 
BRANCH  25  28
HETATM   28  C   UNL     1     -20.455 -12.216  -5.767  1.00  0.00    -0.024 C 
HETATM   29  C   UNL     1     -19.516 -13.446  -5.728  1.00  0.00     0.019 C 
HETATM   30  C   UNL     1     -19.600 -10.937  -5.721  1.00  0.00     0.019 C 
HETATM   31  C   UNL     1     -21.178 -12.276  -7.134  1.00  0.00     0.019 C 
ENDBRANCH  25  28
ENDBRANCH  21  22
ENDBRANCH  19  21
ENDBRANCH   1  19
TORSDOF 8
ENDMDL
MODEL 8
REMARK VINA RESULT:      -6.4      2.667      4.661
REMARK  8 active torsions:
REMARK  status: ('A' for Active; 'I' for Inactive)
REMARK    1  A    between atoms: C_2  and  C_5 
REMARK    2  A    between atoms: C_8  and  C_9 
REMARK    3  A    between atoms: C_9  and  N_10 
REMARK    4  A    between atoms: N_10  and  C_11 
REMARK    5  A    between atoms: N_13  and  C_14 
REMARK    6  A    between atoms: C_14  and  C_15 
REMARK    7  A    between atoms: C_18  and  N_19 
REMARK    8  A    between atoms: N_19  and  S_20 
ROOT
HETATM    1  C   UNL     1     -21.977 -12.688   0.227  1.00  0.00     0.168 C 
HETATM    2  S   UNL     1     -23.181 -13.715  -0.301  1.00  0.00    -0.041 SA
HETATM    3  N   UNL     1     -22.261 -11.359   0.291  1.00  0.00    -0.363 N 
HETATM    4  H   UNL     1     -23.219 -11.134   0.045  1.00  0.00     0.162 HD
ENDROOT
BRANCH   3   5
HETATM    5  C   UNL     1     -21.344 -10.248   0.444  1.00  0.00     0.160 C 
BRANCH   5   6
HETATM    6  C   UNL     1     -21.264  -9.326  -0.751  1.00  0.00    -0.037 A 
HETATM    7  C   UNL     1     -20.418  -9.581  -1.845  1.00  0.00     0.011 A 
HETATM    8  C   UNL     1     -20.305  -8.664  -2.899  1.00  0.00     0.034 A 
HETATM    9  C   UNL     1     -21.006  -7.464  -2.848  1.00  0.00     0.081 A 
HETATM   10  C   UNL     1     -21.877  -7.223  -1.786  1.00  0.00     0.144 A 
HETATM   11  F   UNL     1     -22.584  -6.084  -1.749  1.00  0.00    -0.204 F 
HETATM   12  C   UNL     1     -22.009  -8.138  -0.745  1.00  0.00     0.053 A 
BRANCH   9  13
HETATM   13  N   UNL     1     -20.809  -6.471  -3.854  1.00  0.00    -0.282 N 
HETATM   14  H   UNL     1     -20.683  -5.517  -3.512  1.00  0.00     0.178 HD
BRANCH  13  15
HETATM   15  S   UNL     1     -21.727  -6.515  -5.256  1.00  0.00     0.227 S 
HETATM   16  C   UNL     1     -21.110  -5.142  -6.213  1.00  0.00     0.186 C 
HETATM   17  O   UNL     1     -21.332  -7.725  -5.946  1.00  0.00    -0.206 OA
HETATM   18  O   UNL     1     -23.115  -6.258  -4.927  1.00  0.00    -0.206 OA
ENDBRANCH  13  15
ENDBRANCH   9  13
ENDBRANCH   5   6
ENDBRANCH   3   5
BRANCH   1  19
HETATM   19  N   UNL     1     -20.723 -13.052   0.622  1.00  0.00    -0.363 N 
HETATM   20  H   UNL     1     -20.576 -13.137   1.615  1.00  0.00     0.162 HD
BRANCH  19  21
HETATM   21  C   UNL     1     -19.849 -13.902  -0.167  1.00  0.00     0.160 C 
BRANCH  21  22
HETATM   22  C   UNL     1     -18.955 -13.095  -1.070  1.00  0.00    -0.041 A 
HETATM   23  C   UNL     1     -19.138 -13.118  -2.455  1.00  0.00     0.009 A 
HETATM   24  C   UNL     1     -18.359 -12.309  -3.291  1.00  0.00     0.008 A 
HETATM   25  C   UNL     1     -17.381 -11.443  -2.772  1.00  0.00    -0.051 A 
HETATM   26  C   UNL     1     -17.166 -11.480  -1.384  1.00  0.00     0.008 A 
HETATM   27  C   UNL     1     -17.944 -12.288  -0.545  1.00  0.00     0.009 A 
BRANCH  25  28
HETATM   28  C   UNL     1     -16.563 -10.519  -3.695  1.00  0.00    -0.024 C 
HETATM   29  C   UNL     1     -15.385 -11.263  -4.369  1.00  0.00     0.019 C 
HETATM   30  C   UNL     1     -16.001  -9.359  -2.854  1.00  0.00     0.019 C 
HETATM   31  C   UNL     1     -17.409  -9.926  -4.847  1.00  0.00     0.019 C 
ENDBRANCH  25  28
ENDBRANCH  21  22
ENDBRANCH  19  21
ENDBRANCH   1  19
TORSDOF 8
ENDMDL
MODEL 9
REMARK VINA RESULT:      -6.3      2.854      5.865
REMARK  8 active torsions:
REMARK  status: ('A' for Active; 'I' for Inactive)
REMARK    1  A    between atoms: C_2  and  C_5 
REMARK    2  A    between atoms: C_8  and  C_9 
REMARK    3  A    between atoms: C_9  and  N_10 
REMARK    4  A    between atoms: N_10  and  C_11 
REMARK    5  A    between atoms: N_13  and  C_14 
REMARK    6  A    between atoms: C_14  and  C_15 
REMARK    7  A    between atoms: C_18  and  N_19 
REMARK    8  A    between atoms: N_19  and  S_20 
ROOT
HETATM    1  C   UNL     1     -20.866  -7.592  -2.408  1.00  0.00     0.168 C 
HETATM    2  S   UNL     1     -21.586  -6.363  -3.275  1.00  0.00    -0.041 SA
HETATM    3  N   UNL     1     -20.104  -8.488  -3.093  1.00  0.00    -0.363 N 
HETATM    4  H   UNL     1     -20.017  -8.279  -4.081  1.00  0.00     0.162 HD
ENDROOT
BRANCH   3   5
HETATM    5  C   UNL     1     -19.606  -9.773  -2.646  1.00  0.00     0.160 C 
BRANCH   5   6
HETATM    6  C   UNL     1     -20.485 -10.949  -3.003  1.00  0.00    -0.037 A 
HETATM    7  C   UNL     1     -21.649 -10.812  -3.780  1.00  0.00     0.011 A 
HETATM    8  C   UNL     1     -22.488 -11.909  -4.023  1.00  0.00     0.034 A 
HETATM    9  C   UNL     1     -22.193 -13.143  -3.456  1.00  0.00     0.081 A 
HETATM   10  C   UNL     1     -21.019 -13.295  -2.718  1.00  0.00     0.144 A 
HETATM   11  F   UNL     1     -20.708 -14.492  -2.199  1.00  0.00    -0.204 F 
HETATM   12  C   UNL     1     -20.171 -12.215  -2.488  1.00  0.00     0.053 A 
BRANCH   9  13
HETATM   13  N   UNL     1     -23.099 -14.237  -3.596  1.00  0.00    -0.282 N 
HETATM   14  H   UNL     1     -23.257 -14.788  -2.751  1.00  0.00     0.178 HD
BRANCH  13  15
HETATM   15  S   UNL     1     -23.034 -15.199  -4.967  1.00  0.00     0.227 S 
HETATM   16  C   UNL     1     -23.523 -16.811  -4.380  1.00  0.00     0.186 C 
HETATM   17  O   UNL     1     -24.093 -14.723  -5.831  1.00  0.00    -0.206 OA
HETATM   18  O   UNL     1     -21.663 -15.278  -5.432  1.00  0.00    -0.206 OA
ENDBRANCH  13  15
ENDBRANCH   9  13
ENDBRANCH   5   6
ENDBRANCH   3   5
BRANCH   1  19
HETATM   19  N   UNL     1     -20.952  -7.786  -1.060  1.00  0.00    -0.363 N 
HETATM   20  H   UNL     1     -20.299  -7.268  -0.494  1.00  0.00     0.162 HD
BRANCH  19  21
HETATM   21  C   UNL     1     -22.192  -8.100  -0.372  1.00  0.00     0.160 C 
BRANCH  21  22
HETATM   22  C   UNL     1     -22.322  -9.576  -0.109  1.00  0.00    -0.041 A 
HETATM   23  C   UNL     1     -21.299 -10.276   0.535  1.00  0.00     0.009 A 
HETATM   24  C   UNL     1     -21.451 -11.631   0.851  1.00  0.00     0.008 A 
HETATM   25  C   UNL     1     -22.632 -12.330   0.545  1.00  0.00    -0.051 A 
HETATM   26  C   UNL     1     -23.624 -11.628  -0.160  1.00  0.00     0.008 A 
HETATM   27  C   UNL     1     -23.476 -10.272  -0.476  1.00  0.00     0.009 A 
BRANCH  25  28
HETATM   28  C   UNL     1     -22.810 -13.807   0.941  1.00  0.00    -0.024 C 
HETATM   29  C   UNL     1     -21.455 -14.550   1.048  1.00  0.00     0.019 C 
HETATM   30  C   UNL     1     -23.672 -14.502  -0.129  1.00  0.00     0.019 C 
HETATM   31  C   UNL     1     -23.499 -13.979   2.316  1.00  0.00     0.019 C 
ENDBRANCH  25  28
ENDBRANCH  21  22
ENDBRANCH  19  21
ENDBRANCH   1  19
TORSDOF 8
ENDMDL
