MODEL 1
REMARK VINA RESULT:      -8.1      0.000      0.000
REMARK  17 active torsions:
REMARK  status: ('A' for Active; 'I' for Inactive)
REMARK    1  A    between atoms: C_2  and  C_3 
REMARK    2  A    between atoms: C_3  and  C_4 
REMARK    3  A    between atoms: C_4  and  C_5 
REMARK    4  A    between atoms: C_5  and  C_6 
REMARK    5  A    between atoms: C_7  and  C_8 
REMARK    6  A    between atoms: C_8  and  C_9 
REMARK    7  A    between atoms: C_10  and  C_11 
REMARK    8  A    between atoms: C_11  and  C_12 
REMARK    9  A    between atoms: C_13  and  C_14 
REMARK   10  A    between atoms: C_14  and  C_15 
REMARK   11  A    between atoms: C_16  and  C_17 
REMARK   12  A    between atoms: C_17  and  C_18 
REMARK   13  A    between atoms: C_18  and  C_19 
REMARK   14  A    between atoms: C_19  and  C_20 
REMARK       I    between atoms: C_20  and  N_22 
REMARK   15  A    between atoms: N_22  and  C_23 
REMARK   16  A    between atoms: C_23  and  C_24 
REMARK   17  A    between atoms: C_24  and  O_25 
ROOT
HETATM    1  C   UNL     1     -19.705  -4.762  -7.342  1.00  0.00     0.053 C 
ENDROOT
BRANCH   1   2
HETATM    2  C   UNL     1     -20.569  -5.880  -6.846  1.00  0.00    -0.027 C 
HETATM    3  C   UNL     1     -20.761  -6.152  -5.546  1.00  0.00    -0.027 C 
BRANCH   3   4
HETATM    4  C   UNL     1     -21.609  -7.283  -5.054  1.00  0.00     0.053 C 
BRANCH   4   5
HETATM    5  C   UNL     1     -21.625  -7.338  -3.557  1.00  0.00    -0.027 C 
HETATM    6  C   UNL     1     -22.087  -6.346  -2.779  1.00  0.00    -0.027 C 
BRANCH   6   7
HETATM    7  C   UNL     1     -22.098  -6.400  -1.282  1.00  0.00     0.053 C 
BRANCH   7   8
HETATM    8  C   UNL     1     -22.383  -7.786  -0.800  1.00  0.00    -0.027 C 
HETATM    9  C   UNL     1     -21.680  -8.867  -1.180  1.00  0.00    -0.030 C 
BRANCH   9  10
HETATM   10  C   UNL     1     -21.954 -10.248  -0.674  1.00  0.00     0.027 C 
BRANCH  10  11
HETATM   11  C   UNL     1     -23.396 -10.661  -0.968  1.00  0.00     0.004 C 
BRANCH  11  12
HETATM   12  C   UNL     1     -23.891 -11.674   0.064  1.00  0.00    -0.000 C 
BRANCH  12  13
HETATM   13  C   UNL     1     -22.731 -12.445   0.688  1.00  0.00    -0.005 C 
HETATM   14  C   UNL     1     -23.235 -13.501   1.658  1.00  0.00     0.005 C 
ENDBRANCH  12  13
ENDBRANCH  11  12
ENDBRANCH  10  11
ENDBRANCH   9  10
ENDBRANCH   7   8
ENDBRANCH   6   7
ENDBRANCH   4   5
ENDBRANCH   3   4
ENDBRANCH   1   2
BRANCH   1  15
HETATM   15  C   UNL     1     -20.324  -4.095  -8.532  1.00  0.00    -0.027 C 
HETATM   16  C   UNL     1     -20.095  -4.478  -9.796  1.00  0.00    -0.030 C 
BRANCH  16  17
HETATM   17  C   UNL     1     -20.750  -3.842 -10.985  1.00  0.00     0.027 C 
BRANCH  17  18
HETATM   18  C   UNL     1     -22.164  -4.371 -11.210  1.00  0.00     0.013 C 
BRANCH  18  19
HETATM   19  C   UNL     1     -23.252  -3.301 -11.063  1.00  0.00     0.103 C 
BRANCH  19  20
HETATM   20  C   UNL     1     -23.875  -2.984 -12.407  1.00  0.00     0.217 C 
HETATM   21  O   UNL     1     -25.085  -2.914 -12.590  1.00  0.00    -0.274 OA
HETATM   22  N   UNL     1     -22.958  -2.770 -13.410  1.00  0.00    -0.359 N 
HETATM   23  H   UNL     1     -21.966  -2.804 -13.207  1.00  0.00     0.162 HD
BRANCH  22  24
HETATM   24  C   UNL     1     -23.398  -2.501 -14.771  1.00  0.00     0.148 C 
BRANCH  24  25
HETATM   25  C   UNL     1     -23.605  -1.010 -15.027  1.00  0.00     0.183 C 
BRANCH  25  26
HETATM   26  O   UNL     1     -24.924  -0.625 -14.643  1.00  0.00    -0.399 OA
HETATM   27  H   UNL     1     -25.244  -1.326 -14.050  1.00  0.00     0.209 HD
ENDBRANCH  25  26
ENDBRANCH  24  25
ENDBRANCH  22  24
ENDBRANCH  19  20
ENDBRANCH  18  19
ENDBRANCH  17  18
ENDBRANCH  16  17
ENDBRANCH   1  15
TORSDOF 17
ENDMDL
MODEL 2
REMARK VINA RESULT:      -8.0      1.059      2.180
REMARK  17 active torsions:
REMARK  status: ('A' for Active; 'I' for Inactive)
REMARK    1  A    between atoms: C_2  and  C_3 
REMARK    2  A    between atoms: C_3  and  C_4 
REMARK    3  A    between atoms: C_4  and  C_5 
REMARK    4  A    between atoms: C_5  and  C_6 
REMARK    5  A    between atoms: C_7  and  C_8 
REMARK    6  A    between atoms: C_8  and  C_9 
REMARK    7  A    between atoms: C_10  and  C_11 
REMARK    8  A    between atoms: C_11  and  C_12 
REMARK    9  A    between atoms: C_13  and  C_14 
REMARK   10  A    between atoms: C_14  and  C_15 
REMARK   11  A    between atoms: C_16  and  C_17 
REMARK   12  A    between atoms: C_17  and  C_18 
REMARK   13  A    between atoms: C_18  and  C_19 
REMARK   14  A    between atoms: C_19  and  C_20 
REMARK       I    between atoms: C_20  and  N_22 
REMARK   15  A    between atoms: N_22  and  C_23 
REMARK   16  A    between atoms: C_23  and  C_24 
REMARK   17  A    between atoms: C_24  and  O_25 
ROOT
HETATM    1  C   UNL     1     -20.452  -6.700  -5.764  1.00  0.00     0.053 C 
ENDROOT
BRANCH   1   2
HETATM    2  C   UNL     1     -21.129  -6.017  -4.616  1.00  0.00    -0.027 C 
HETATM    3  C   UNL     1     -21.522  -6.650  -3.500  1.00  0.00    -0.027 C 
BRANCH   3   4
HETATM    4  C   UNL     1     -22.216  -5.969  -2.363  1.00  0.00     0.053 C 
BRANCH   4   5
HETATM    5  C   UNL     1     -22.301  -6.863  -1.164  1.00  0.00    -0.027 C 
HETATM    6  C   UNL     1     -21.355  -7.755  -0.831  1.00  0.00    -0.027 C 
BRANCH   6   7
HETATM    7  C   UNL     1     -21.444  -8.653   0.365  1.00  0.00     0.053 C 
BRANCH   7   8
HETATM    8  C   UNL     1     -22.111  -9.944   0.015  1.00  0.00    -0.027 C 
HETATM    9  C   UNL     1     -23.445 -10.102  -0.041  1.00  0.00    -0.030 C 
BRANCH   9  10
HETATM   10  C   UNL     1     -24.108 -11.390  -0.417  1.00  0.00     0.027 C 
BRANCH  10  11
HETATM   11  C   UNL     1     -23.093 -12.379  -0.990  1.00  0.00     0.004 C 
BRANCH  11  12
HETATM   12  C   UNL     1     -22.867 -13.544  -0.027  1.00  0.00    -0.000 C 
BRANCH  12  13
HETATM   13  C   UNL     1     -23.498 -13.269   1.336  1.00  0.00    -0.005 C 
HETATM   14  C   UNL     1     -22.926 -14.191   2.399  1.00  0.00     0.005 C 
ENDBRANCH  12  13
ENDBRANCH  11  12
ENDBRANCH  10  11
ENDBRANCH   9  10
ENDBRANCH   7   8
ENDBRANCH   6   7
ENDBRANCH   4   5
ENDBRANCH   3   4
ENDBRANCH   1   2
BRANCH   1  15
HETATM   15  C   UNL     1     -20.053  -5.710  -6.815  1.00  0.00    -0.027 C 
HETATM   16  C   UNL     1     -20.932  -5.064  -7.594  1.00  0.00    -0.030 C 
BRANCH  16  17
HETATM   17  C   UNL     1     -20.538  -4.039  -8.614  1.00  0.00     0.027 C 
BRANCH  17  18
HETATM   18  C   UNL     1     -20.636  -4.580 -10.037  1.00  0.00     0.013 C 
BRANCH  18  19
HETATM   19  C   UNL     1     -20.604  -3.489 -11.113  1.00  0.00     0.103 C 
BRANCH  19  20
HETATM   20  C   UNL     1     -21.992  -3.240 -11.666  1.00  0.00     0.217 C 
HETATM   21  O   UNL     1     -22.966  -3.001 -10.962  1.00  0.00    -0.274 OA
HETATM   22  N   UNL     1     -22.063  -3.297 -13.039  1.00  0.00    -0.359 N 
HETATM   23  H   UNL     1     -21.227  -3.465 -13.585  1.00  0.00     0.162 HD
BRANCH  22  24
HETATM   24  C   UNL     1     -23.338  -3.127 -13.722  1.00  0.00     0.148 C 
BRANCH  24  25
HETATM   25  C   UNL     1     -23.332  -1.926 -14.664  1.00  0.00     0.183 C 
BRANCH  25  26
HETATM   26  O   UNL     1     -24.398  -1.037 -14.332  1.00  0.00    -0.399 OA
HETATM   27  H   UNL     1     -24.714  -1.316 -13.456  1.00  0.00     0.209 HD
ENDBRANCH  25  26
ENDBRANCH  24  25
ENDBRANCH  22  24
ENDBRANCH  19  20
ENDBRANCH  18  19
ENDBRANCH  17  18
ENDBRANCH  16  17
ENDBRANCH   1  15
TORSDOF 17
ENDMDL
MODEL 3
REMARK VINA RESULT:      -7.7      2.064      3.596
REMARK  17 active torsions:
REMARK  status: ('A' for Active; 'I' for Inactive)
REMARK    1  A    between atoms: C_2  and  C_3 
REMARK    2  A    between atoms: C_3  and  C_4 
REMARK    3  A    between atoms: C_4  and  C_5 
REMARK    4  A    between atoms: C_5  and  C_6 
REMARK    5  A    between atoms: C_7  and  C_8 
REMARK    6  A    between atoms: C_8  and  C_9 
REMARK    7  A    between atoms: C_10  and  C_11 
REMARK    8  A    between atoms: C_11  and  C_12 
REMARK    9  A    between atoms: C_13  and  C_14 
REMARK   10  A    between atoms: C_14  and  C_15 
REMARK   11  A    between atoms: C_16  and  C_17 
REMARK   12  A    between atoms: C_17  and  C_18 
REMARK   13  A    between atoms: C_18  and  C_19 
REMARK   14  A    between atoms: C_19  and  C_20 
REMARK       I    between atoms: C_20  and  N_22 
REMARK   15  A    between atoms: N_22  and  C_23 
REMARK   16  A    between atoms: C_23  and  C_24 
REMARK   17  A    between atoms: C_24  and  O_25 
ROOT
HETATM    1  C   UNL     1     -21.195  -7.799  -5.401  1.00  0.00     0.053 C 
ENDROOT
BRANCH   1   2
HETATM    2  C   UNL     1     -21.567  -7.560  -3.970  1.00  0.00    -0.027 C 
HETATM    3  C   UNL     1     -21.793  -6.342  -3.454  1.00  0.00    -0.027 C 
BRANCH   3   4
HETATM    4  C   UNL     1     -22.146  -6.104  -2.019  1.00  0.00     0.053 C 
BRANCH   4   5
HETATM    5  C   UNL     1     -21.889  -7.324  -1.188  1.00  0.00    -0.027 C 
HETATM    6  C   UNL     1     -22.428  -7.527   0.024  1.00  0.00    -0.027 C 
BRANCH   6   7
HETATM    7  C   UNL     1     -22.167  -8.744   0.857  1.00  0.00     0.053 C 
BRANCH   7   8
HETATM    8  C   UNL     1     -22.391  -9.992   0.064  1.00  0.00    -0.027 C 
HETATM    9  C   UNL     1     -23.593 -10.372  -0.403  1.00  0.00    -0.030 C 
BRANCH   9  10
HETATM   10  C   UNL     1     -23.807 -11.609  -1.218  1.00  0.00     0.027 C 
BRANCH  10  11
HETATM   11  C   UNL     1     -22.596 -11.893  -2.107  1.00  0.00     0.004 C 
BRANCH  11  12
HETATM   12  C   UNL     1     -22.683 -11.103  -3.412  1.00  0.00    -0.000 C 
BRANCH  12  13
HETATM   13  C   UNL     1     -22.611 -12.024  -4.626  1.00  0.00    -0.005 C 
HETATM   14  C   UNL     1     -22.368 -13.464  -4.208  1.00  0.00     0.005 C 
ENDBRANCH  12  13
ENDBRANCH  11  12
ENDBRANCH  10  11
ENDBRANCH   9  10
ENDBRANCH   7   8
ENDBRANCH   6   7
ENDBRANCH   4   5
ENDBRANCH   3   4
ENDBRANCH   1   2
BRANCH   1  15
HETATM   15  C   UNL     1     -20.310  -6.705  -5.914  1.00  0.00    -0.027 C 
HETATM   16  C   UNL     1     -20.493  -6.098  -7.095  1.00  0.00    -0.030 C 
BRANCH  16  17
HETATM   17  C   UNL     1     -19.638  -4.970  -7.588  1.00  0.00     0.027 C 
BRANCH  17  18
HETATM   18  C   UNL     1     -20.472  -3.790  -8.078  1.00  0.00     0.013 C 
BRANCH  18  19
HETATM   19  C   UNL     1     -21.954  -3.884  -7.696  1.00  0.00     0.103 C 
BRANCH  19  20
HETATM   20  C   UNL     1     -22.824  -3.938  -8.935  1.00  0.00     0.217 C 
HETATM   21  O   UNL     1     -24.019  -3.664  -8.933  1.00  0.00    -0.274 OA
HETATM   22  N   UNL     1     -22.149  -4.315 -10.072  1.00  0.00    -0.359 N 
HETATM   23  H   UNL     1     -21.154  -4.501 -10.036  1.00  0.00     0.162 HD
BRANCH  22  24
HETATM   24  C   UNL     1     -22.855  -4.461 -11.338  1.00  0.00     0.148 C 
BRANCH  24  25
HETATM   25  C   UNL     1     -22.752  -3.208 -12.204  1.00  0.00     0.183 C 
BRANCH  25  26
HETATM   26  O   UNL     1     -21.907  -3.456 -13.327  1.00  0.00    -0.399 OA
HETATM   27  H   UNL     1     -21.395  -4.252 -13.105  1.00  0.00     0.209 HD
ENDBRANCH  25  26
ENDBRANCH  24  25
ENDBRANCH  22  24
ENDBRANCH  19  20
ENDBRANCH  18  19
ENDBRANCH  17  18
ENDBRANCH  16  17
ENDBRANCH   1  15
TORSDOF 17
ENDMDL
MODEL 4
REMARK VINA RESULT:      -7.6      3.630      7.313
REMARK  17 active torsions:
REMARK  status: ('A' for Active; 'I' for Inactive)
REMARK    1  A    between atoms: C_2  and  C_3 
REMARK    2  A    between atoms: C_3  and  C_4 
REMARK    3  A    between atoms: C_4  and  C_5 
REMARK    4  A    between atoms: C_5  and  C_6 
REMARK    5  A    between atoms: C_7  and  C_8 
REMARK    6  A    between atoms: C_8  and  C_9 
REMARK    7  A    between atoms: C_10  and  C_11 
REMARK    8  A    between atoms: C_11  and  C_12 
REMARK    9  A    between atoms: C_13  and  C_14 
REMARK   10  A    between atoms: C_14  and  C_15 
REMARK   11  A    between atoms: C_16  and  C_17 
REMARK   12  A    between atoms: C_17  and  C_18 
REMARK   13  A    between atoms: C_18  and  C_19 
REMARK   14  A    between atoms: C_19  and  C_20 
REMARK       I    between atoms: C_20  and  N_22 
REMARK   15  A    between atoms: N_22  and  C_23 
REMARK   16  A    between atoms: C_23  and  C_24 
REMARK   17  A    between atoms: C_24  and  O_25 
ROOT
HETATM    1  C   UNL     1     -22.509  -8.564   0.624  1.00  0.00     0.053 C 
ENDROOT
BRANCH   1   2
HETATM    2  C   UNL     1     -22.816  -9.731  -0.262  1.00  0.00    -0.027 C 
HETATM    3  C   UNL     1     -23.878 -10.535  -0.093  1.00  0.00    -0.027 C 
BRANCH   3   4
HETATM    4  C   UNL     1     -24.172 -11.712  -0.969  1.00  0.00     0.053 C 
BRANCH   4   5
HETATM    5  C   UNL     1     -23.104 -11.900  -2.003  1.00  0.00    -0.027 C 
HETATM    6  C   UNL     1     -23.083 -11.253  -3.179  1.00  0.00    -0.027 C 
BRANCH   6   7
HETATM    7  C   UNL     1     -22.018 -11.446  -4.214  1.00  0.00     0.053 C 
BRANCH   7   8
HETATM    8  C   UNL     1     -20.943 -10.416  -4.072  1.00  0.00    -0.027 C 
HETATM    9  C   UNL     1     -20.222 -10.241  -2.950  1.00  0.00    -0.030 C 
BRANCH   9  10
HETATM   10  C   UNL     1     -19.130  -9.226  -2.822  1.00  0.00     0.027 C 
BRANCH  10  11
HETATM   11  C   UNL     1     -18.374  -9.069  -4.140  1.00  0.00     0.004 C 
BRANCH  11  12
HETATM   12  C   UNL     1     -17.062  -9.851  -4.110  1.00  0.00    -0.000 C 
BRANCH  12  13
HETATM   13  C   UNL     1     -16.253  -9.533  -2.856  1.00  0.00    -0.005 C 
HETATM   14  C   UNL     1     -15.811 -10.805  -2.152  1.00  0.00     0.005 C 
ENDBRANCH  12  13
ENDBRANCH  11  12
ENDBRANCH  10  11
ENDBRANCH   9  10
ENDBRANCH   7   8
ENDBRANCH   6   7
ENDBRANCH   4   5
ENDBRANCH   3   4
ENDBRANCH   1   2
BRANCH   1  15
HETATM   15  C   UNL     1     -22.367  -7.307  -0.177  1.00  0.00    -0.027 C 
HETATM   16  C   UNL     1     -22.082  -7.293  -1.487  1.00  0.00    -0.030 C 
BRANCH  16  17
HETATM   17  C   UNL     1     -21.986  -6.038  -2.301  1.00  0.00     0.027 C 
BRANCH  17  18
HETATM   18  C   UNL     1     -21.188  -6.248  -3.584  1.00  0.00     0.013 C 
BRANCH  18  19
HETATM   19  C   UNL     1     -22.010  -6.852  -4.728  1.00  0.00     0.103 C 
BRANCH  19  20
HETATM   20  C   UNL     1     -21.499  -6.367  -6.070  1.00  0.00     0.217 C 
HETATM   21  O   UNL     1     -20.774  -7.035  -6.798  1.00  0.00    -0.274 OA
HETATM   22  N   UNL     1     -21.932  -5.105  -6.406  1.00  0.00    -0.359 N 
HETATM   23  H   UNL     1     -22.558  -4.601  -5.790  1.00  0.00     0.162 HD
BRANCH  22  24
HETATM   24  C   UNL     1     -21.491  -4.476  -7.643  1.00  0.00     0.148 C 
BRANCH  24  25
HETATM   25  C   UNL     1     -22.658  -4.131  -8.564  1.00  0.00     0.183 C 
BRANCH  25  26
HETATM   26  O   UNL     1     -23.877  -4.107  -7.822  1.00  0.00    -0.399 OA
HETATM   27  H   UNL     1     -23.637  -4.332  -6.907  1.00  0.00     0.209 HD
ENDBRANCH  25  26
ENDBRANCH  24  25
ENDBRANCH  22  24
ENDBRANCH  19  20
ENDBRANCH  18  19
ENDBRANCH  17  18
ENDBRANCH  16  17
ENDBRANCH   1  15
TORSDOF 17
ENDMDL
MODEL 5
REMARK VINA RESULT:      -7.5      1.876      3.542
REMARK  17 active torsions:
REMARK  status: ('A' for Active; 'I' for Inactive)
REMARK    1  A    between atoms: C_2  and  C_3 
REMARK    2  A    between atoms: C_3  and  C_4 
REMARK    3  A    between atoms: C_4  and  C_5 
REMARK    4  A    between atoms: C_5  and  C_6 
REMARK    5  A    between atoms: C_7  and  C_8 
REMARK    6  A    between atoms: C_8  and  C_9 
REMARK    7  A    between atoms: C_10  and  C_11 
REMARK    8  A    between atoms: C_11  and  C_12 
REMARK    9  A    between atoms: C_13  and  C_14 
REMARK   10  A    between atoms: C_14  and  C_15 
REMARK   11  A    between atoms: C_16  and  C_17 
REMARK   12  A    between atoms: C_17  and  C_18 
REMARK   13  A    between atoms: C_18  and  C_19 
REMARK   14  A    between atoms: C_19  and  C_20 
REMARK       I    between atoms: C_20  and  N_22 
REMARK   15  A    between atoms: N_22  and  C_23 
REMARK   16  A    between atoms: C_23  and  C_24 
REMARK   17  A    between atoms: C_24  and  O_25 
ROOT
HETATM    1  C   UNL     1     -21.766  -6.475  -5.014  1.00  0.00     0.053 C 
ENDROOT
BRANCH   1   2
HETATM    2  C   UNL     1     -21.314  -7.900  -4.920  1.00  0.00    -0.027 C 
HETATM    3  C   UNL     1     -20.049  -8.263  -4.663  1.00  0.00    -0.027 C 
BRANCH   3   4
HETATM    4  C   UNL     1     -19.596  -9.688  -4.590  1.00  0.00     0.053 C 
BRANCH   4   5
HETATM    5  C   UNL     1     -20.590 -10.536  -3.856  1.00  0.00    -0.027 C 
HETATM    6  C   UNL     1     -21.521 -11.288  -4.465  1.00  0.00    -0.027 C 
BRANCH   6   7
HETATM    7  C   UNL     1     -22.517 -12.132  -3.730  1.00  0.00     0.053 C 
BRANCH   7   8
HETATM    8  C   UNL     1     -22.515 -11.811  -2.270  1.00  0.00    -0.027 C 
HETATM    9  C   UNL     1     -23.464 -11.073  -1.667  1.00  0.00    -0.030 C 
BRANCH   9  10
HETATM   10  C   UNL     1     -23.470 -10.777  -0.201  1.00  0.00     0.027 C 
BRANCH  10  11
HETATM   11  C   UNL     1     -22.377  -9.771   0.158  1.00  0.00     0.004 C 
BRANCH  11  12
HETATM   12  C   UNL     1     -22.965  -8.372   0.339  1.00  0.00    -0.000 C 
BRANCH  12  13
HETATM   13  C   UNL     1     -22.341  -7.376  -0.633  1.00  0.00    -0.005 C 
HETATM   14  C   UNL     1     -21.055  -7.923  -1.228  1.00  0.00     0.005 C 
ENDBRANCH  12  13
ENDBRANCH  11  12
ENDBRANCH  10  11
ENDBRANCH   9  10
ENDBRANCH   7   8
ENDBRANCH   6   7
ENDBRANCH   4   5
ENDBRANCH   3   4
ENDBRANCH   1   2
BRANCH   1  15
HETATM   15  C   UNL     1     -21.419  -5.890  -6.349  1.00  0.00    -0.027 C 
HETATM   16  C   UNL     1     -20.367  -5.084  -6.552  1.00  0.00    -0.030 C 
BRANCH  16  17
HETATM   17  C   UNL     1     -19.990  -4.537  -7.895  1.00  0.00     0.027 C 
BRANCH  17  18
HETATM   18  C   UNL     1     -21.174  -4.521  -8.859  1.00  0.00     0.013 C 
BRANCH  18  19
HETATM   19  C   UNL     1     -20.832  -3.960 -10.244  1.00  0.00     0.103 C 
BRANCH  19  20
HETATM   20  C   UNL     1     -22.067  -3.904 -11.119  1.00  0.00     0.217 C 
HETATM   21  O   UNL     1     -22.916  -4.788 -11.146  1.00  0.00    -0.274 OA
HETATM   22  N   UNL     1     -22.158  -2.761 -11.879  1.00  0.00    -0.359 N 
HETATM   23  H   UNL     1     -21.451  -2.040 -11.801  1.00  0.00     0.162 HD
BRANCH  22  24
HETATM   24  C   UNL     1     -23.264  -2.577 -12.809  1.00  0.00     0.148 C 
BRANCH  24  25
HETATM   25  C   UNL     1     -22.851  -2.836 -14.256  1.00  0.00     0.183 C 
BRANCH  25  26
HETATM   26  O   UNL     1     -23.772  -3.733 -14.875  1.00  0.00    -0.399 OA
HETATM   27  H   UNL     1     -23.236  -4.461 -15.232  1.00  0.00     0.209 HD
ENDBRANCH  25  26
ENDBRANCH  24  25
ENDBRANCH  22  24
ENDBRANCH  19  20
ENDBRANCH  18  19
ENDBRANCH  17  18
ENDBRANCH  16  17
ENDBRANCH   1  15
TORSDOF 17
ENDMDL
MODEL 6
REMARK VINA RESULT:      -7.5      2.475      5.340
REMARK  17 active torsions:
REMARK  status: ('A' for Active; 'I' for Inactive)
REMARK    1  A    between atoms: C_2  and  C_3 
REMARK    2  A    between atoms: C_3  and  C_4 
REMARK    3  A    between atoms: C_4  and  C_5 
REMARK    4  A    between atoms: C_5  and  C_6 
REMARK    5  A    between atoms: C_7  and  C_8 
REMARK    6  A    between atoms: C_8  and  C_9 
REMARK    7  A    between atoms: C_10  and  C_11 
REMARK    8  A    between atoms: C_11  and  C_12 
REMARK    9  A    between atoms: C_13  and  C_14 
REMARK   10  A    between atoms: C_14  and  C_15 
REMARK   11  A    between atoms: C_16  and  C_17 
REMARK   12  A    between atoms: C_17  and  C_18 
REMARK   13  A    between atoms: C_18  and  C_19 
REMARK   14  A    between atoms: C_19  and  C_20 
REMARK       I    between atoms: C_20  and  N_22 
REMARK   15  A    between atoms: N_22  and  C_23 
REMARK   16  A    between atoms: C_23  and  C_24 
REMARK   17  A    between atoms: C_24  and  O_25 
ROOT
HETATM    1  C   UNL     1     -21.952  -5.961  -2.008  1.00  0.00     0.053 C 
ENDROOT
BRANCH   1   2
HETATM    2  C   UNL     1     -22.342  -7.251  -1.354  1.00  0.00    -0.027 C 
HETATM    3  C   UNL     1     -22.712  -7.351  -0.068  1.00  0.00    -0.027 C 
BRANCH   3   4
HETATM    4  C   UNL     1     -23.082  -8.644   0.588  1.00  0.00     0.053 C 
BRANCH   4   5
HETATM    5  C   UNL     1     -22.758  -9.812  -0.293  1.00  0.00    -0.027 C 
HETATM    6  C   UNL     1     -23.675 -10.686  -0.737  1.00  0.00    -0.027 C 
BRANCH   6   7
HETATM    7  C   UNL     1     -23.350 -11.857  -1.614  1.00  0.00     0.053 C 
BRANCH   7   8
HETATM    8  C   UNL     1     -22.814 -11.402  -2.934  1.00  0.00    -0.027 C 
HETATM    9  C   UNL     1     -21.870 -10.454  -3.069  1.00  0.00    -0.030 C 
BRANCH   9  10
HETATM   10  C   UNL     1     -21.319 -10.021  -4.391  1.00  0.00     0.027 C 
BRANCH  10  11
HETATM   11  C   UNL     1     -19.890  -9.501  -4.243  1.00  0.00     0.004 C 
BRANCH  11  12
HETATM   12  C   UNL     1     -19.488  -9.429  -2.770  1.00  0.00    -0.000 C 
BRANCH  12  13
HETATM   13  C   UNL     1     -18.120 -10.063  -2.535  1.00  0.00    -0.005 C 
HETATM   14  C   UNL     1     -17.116  -9.602  -3.578  1.00  0.00     0.005 C 
ENDBRANCH  12  13
ENDBRANCH  11  12
ENDBRANCH  10  11
ENDBRANCH   9  10
ENDBRANCH   7   8
ENDBRANCH   6   7
ENDBRANCH   4   5
ENDBRANCH   3   4
ENDBRANCH   1   2
BRANCH   1  15
HETATM   15  C   UNL     1     -21.293  -6.210  -3.330  1.00  0.00    -0.027 C 
HETATM   16  C   UNL     1     -21.968  -6.329  -4.482  1.00  0.00    -0.030 C 
BRANCH  16  17
HETATM   17  C   UNL     1     -21.307  -6.530  -5.812  1.00  0.00     0.027 C 
BRANCH  17  18
HETATM   18  C   UNL     1     -20.555  -5.284  -6.272  1.00  0.00     0.013 C 
BRANCH  18  19
HETATM   19  C   UNL     1     -20.336  -5.222  -7.787  1.00  0.00     0.103 C 
BRANCH  19  20
HETATM   20  C   UNL     1     -21.461  -4.460  -8.460  1.00  0.00     0.217 C 
HETATM   21  O   UNL     1     -22.355  -3.893  -7.843  1.00  0.00    -0.274 OA
HETATM   22  N   UNL     1     -21.384  -4.454  -9.833  1.00  0.00    -0.359 N 
HETATM   23  H   UNL     1     -20.610  -4.908 -10.302  1.00  0.00     0.162 HD
BRANCH  22  24
HETATM   24  C   UNL     1     -22.417  -3.805 -10.629  1.00  0.00     0.148 C 
BRANCH  24  25
HETATM   25  C   UNL     1     -21.830  -2.942 -11.743  1.00  0.00     0.183 C 
BRANCH  25  26
HETATM   26  O   UNL     1     -21.853  -3.656 -12.979  1.00  0.00    -0.399 OA
HETATM   27  H   UNL     1     -21.092  -4.260 -12.952  1.00  0.00     0.209 HD
ENDBRANCH  25  26
ENDBRANCH  24  25
ENDBRANCH  22  24
ENDBRANCH  19  20
ENDBRANCH  18  19
ENDBRANCH  17  18
ENDBRANCH  16  17
ENDBRANCH   1  15
TORSDOF 17
ENDMDL
MODEL 7
REMARK VINA RESULT:      -7.3      6.289     12.623
REMARK  17 active torsions:
REMARK  status: ('A' for Active; 'I' for Inactive)
REMARK    1  A    between atoms: C_2  and  C_3 
REMARK    2  A    between atoms: C_3  and  C_4 
REMARK    3  A    between atoms: C_4  and  C_5 
REMARK    4  A    between atoms: C_5  and  C_6 
REMARK    5  A    between atoms: C_7  and  C_8 
REMARK    6  A    between atoms: C_8  and  C_9 
REMARK    7  A    between atoms: C_10  and  C_11 
REMARK    8  A    between atoms: C_11  and  C_12 
REMARK    9  A    between atoms: C_13  and  C_14 
REMARK   10  A    between atoms: C_14  and  C_15 
REMARK   11  A    between atoms: C_16  and  C_17 
REMARK   12  A    between atoms: C_17  and  C_18 
REMARK   13  A    between atoms: C_18  and  C_19 
REMARK   14  A    between atoms: C_19  and  C_20 
REMARK       I    between atoms: C_20  and  N_22 
REMARK   15  A    between atoms: N_22  and  C_23 
REMARK   16  A    between atoms: C_23  and  C_24 
REMARK   17  A    between atoms: C_24  and  O_25 
ROOT
HETATM    1  C   UNL     1     -22.034  -6.048  -2.059  1.00  0.00     0.053 C 
ENDROOT
BRANCH   1   2
HETATM    2  C   UNL     1     -21.947  -6.397  -3.513  1.00  0.00    -0.027 C 
HETATM    3  C   UNL     1     -21.268  -7.455  -3.985  1.00  0.00    -0.027 C 
BRANCH   3   4
HETATM    4  C   UNL     1     -21.167  -7.790  -5.440  1.00  0.00     0.053 C 
BRANCH   4   5
HETATM    5  C   UNL     1     -20.279  -6.821  -6.159  1.00  0.00    -0.027 C 
HETATM    6  C   UNL     1     -20.735  -5.768  -6.856  1.00  0.00    -0.027 C 
BRANCH   6   7
HETATM    7  C   UNL     1     -19.846  -4.803  -7.580  1.00  0.00     0.053 C 
BRANCH   7   8
HETATM    8  C   UNL     1     -20.092  -4.853  -9.054  1.00  0.00    -0.027 C 
HETATM    9  C   UNL     1     -20.525  -3.803  -9.773  1.00  0.00    -0.030 C 
BRANCH   9  10
HETATM   10  C   UNL     1     -20.745  -3.852 -11.253  1.00  0.00     0.027 C 
BRANCH  10  11
HETATM   11  C   UNL     1     -22.131  -3.323 -11.617  1.00  0.00     0.004 C 
BRANCH  11  12
HETATM   12  C   UNL     1     -23.131  -4.471 -11.757  1.00  0.00    -0.000 C 
BRANCH  12  13
HETATM   13  C   UNL     1     -23.818  -4.775 -10.429  1.00  0.00    -0.005 C 
HETATM   14  C   UNL     1     -24.563  -3.559  -9.907  1.00  0.00     0.005 C 
ENDBRANCH  12  13
ENDBRANCH  11  12
ENDBRANCH  10  11
ENDBRANCH   9  10
ENDBRANCH   7   8
ENDBRANCH   6   7
ENDBRANCH   4   5
ENDBRANCH   3   4
ENDBRANCH   1   2
BRANCH   1  15
HETATM   15  C   UNL     1     -21.897  -7.272  -1.206  1.00  0.00    -0.027 C 
HETATM   16  C   UNL     1     -22.676  -7.524  -0.145  1.00  0.00    -0.030 C 
BRANCH  16  17
HETATM   17  C   UNL     1     -22.572  -8.771   0.681  1.00  0.00     0.027 C 
BRANCH  17  18
HETATM   18  C   UNL     1     -21.775  -9.862  -0.028  1.00  0.00     0.013 C 
BRANCH  18  19
HETATM   19  C   UNL     1     -20.997 -10.774   0.926  1.00  0.00     0.103 C 
BRANCH  19  20
HETATM   20  C   UNL     1     -20.015 -11.638   0.161  1.00  0.00     0.217 C 
HETATM   21  O   UNL     1     -20.345 -12.397  -0.742  1.00  0.00    -0.274 OA
HETATM   22  N   UNL     1     -18.708 -11.486   0.565  1.00  0.00    -0.359 N 
HETATM   23  H   UNL     1     -18.475 -10.822   1.293  1.00  0.00     0.162 HD
BRANCH  22  24
HETATM   24  C   UNL     1     -17.649 -12.281  -0.041  1.00  0.00     0.148 C 
BRANCH  24  25
HETATM   25  C   UNL     1     -16.621 -12.751   0.985  1.00  0.00     0.183 C 
BRANCH  25  26
HETATM   26  O   UNL     1     -15.761 -11.671   1.346  1.00  0.00    -0.399 OA
HETATM   27  H   UNL     1     -16.251 -10.858   1.138  1.00  0.00     0.209 HD
ENDBRANCH  25  26
ENDBRANCH  24  25
ENDBRANCH  22  24
ENDBRANCH  19  20
ENDBRANCH  18  19
ENDBRANCH  17  18
ENDBRANCH  16  17
ENDBRANCH   1  15
TORSDOF 17
ENDMDL
MODEL 8
REMARK VINA RESULT:      -7.2      5.351     10.872
REMARK  17 active torsions:
REMARK  status: ('A' for Active; 'I' for Inactive)
REMARK    1  A    between atoms: C_2  and  C_3 
REMARK    2  A    between atoms: C_3  and  C_4 
REMARK    3  A    between atoms: C_4  and  C_5 
REMARK    4  A    between atoms: C_5  and  C_6 
REMARK    5  A    between atoms: C_7  and  C_8 
REMARK    6  A    between atoms: C_8  and  C_9 
REMARK    7  A    between atoms: C_10  and  C_11 
REMARK    8  A    between atoms: C_11  and  C_12 
REMARK    9  A    between atoms: C_13  and  C_14 
REMARK   10  A    between atoms: C_14  and  C_15 
REMARK   11  A    between atoms: C_16  and  C_17 
REMARK   12  A    between atoms: C_17  and  C_18 
REMARK   13  A    between atoms: C_18  and  C_19 
REMARK   14  A    between atoms: C_19  and  C_20 
REMARK       I    between atoms: C_20  and  N_22 
REMARK   15  A    between atoms: N_22  and  C_23 
REMARK   16  A    between atoms: C_23  and  C_24 
REMARK   17  A    between atoms: C_24  and  O_25 
ROOT
HETATM    1  C   UNL     1     -22.871  -8.608   0.813  1.00  0.00     0.053 C 
ENDROOT
BRANCH   1   2
HETATM    2  C   UNL     1     -22.759  -7.341   0.022  1.00  0.00    -0.027 C 
HETATM    3  C   UNL     1     -22.173  -7.264  -1.182  1.00  0.00    -0.027 C 
BRANCH   3   4
HETATM    4  C   UNL     1     -22.045  -5.993  -1.961  1.00  0.00     0.053 C 
BRANCH   4   5
HETATM    5  C   UNL     1     -21.477  -6.246  -3.324  1.00  0.00    -0.027 C 
HETATM    6  C   UNL     1     -21.588  -7.416  -3.972  1.00  0.00    -0.027 C 
BRANCH   6   7
HETATM    7  C   UNL     1     -21.015  -7.669  -5.333  1.00  0.00     0.053 C 
BRANCH   7   8
HETATM    8  C   UNL     1     -21.078  -6.436  -6.177  1.00  0.00    -0.027 C 
HETATM    9  C   UNL     1     -19.994  -5.733  -6.550  1.00  0.00    -0.030 C 
BRANCH   9  10
HETATM   10  C   UNL     1     -20.062  -4.514  -7.416  1.00  0.00     0.027 C 
BRANCH  10  11
HETATM   11  C   UNL     1     -21.504  -4.033  -7.571  1.00  0.00     0.004 C 
BRANCH  11  12
HETATM   12  C   UNL     1     -21.878  -3.907  -9.048  1.00  0.00    -0.000 C 
BRANCH  12  13
HETATM   13  C   UNL     1     -20.725  -4.332  -9.953  1.00  0.00    -0.005 C 
HETATM   14  C   UNL     1     -20.822  -3.663 -11.313  1.00  0.00     0.005 C 
ENDBRANCH  12  13
ENDBRANCH  11  12
ENDBRANCH  10  11
ENDBRANCH   9  10
ENDBRANCH   7   8
ENDBRANCH   6   7
ENDBRANCH   4   5
ENDBRANCH   3   4
ENDBRANCH   1   2
BRANCH   1  15
HETATM   15  C   UNL     1     -22.555  -9.799  -0.039  1.00  0.00    -0.027 C 
HETATM   16  C   UNL     1     -23.487 -10.513  -0.686  1.00  0.00    -0.030 C 
BRANCH  16  17
HETATM   17  C   UNL     1     -23.169 -11.676  -1.577  1.00  0.00     0.027 C 
BRANCH  17  18
HETATM   18  C   UNL     1     -22.422 -11.244  -2.836  1.00  0.00     0.013 C 
BRANCH  18  19
HETATM   19  C   UNL     1     -21.001 -11.810  -2.932  1.00  0.00     0.103 C 
BRANCH  19  20
HETATM   20  C   UNL     1     -19.981 -10.690  -2.980  1.00  0.00     0.217 C 
HETATM   21  O   UNL     1     -19.882  -9.830  -2.113  1.00  0.00    -0.274 OA
HETATM   22  N   UNL     1     -19.164 -10.729  -4.086  1.00  0.00    -0.359 N 
HETATM   23  H   UNL     1     -19.258 -11.478  -4.762  1.00  0.00     0.162 HD
BRANCH  22  24
HETATM   24  C   UNL     1     -18.162  -9.695  -4.304  1.00  0.00     0.148 C 
BRANCH  24  25
HETATM   25  C   UNL     1     -16.785 -10.108  -3.792  1.00  0.00     0.183 C 
BRANCH  25  26
HETATM   26  O   UNL     1     -16.389  -9.263  -2.712  1.00  0.00    -0.399 OA
HETATM   27  H   UNL     1     -16.186  -8.399  -3.110  1.00  0.00     0.209 HD
ENDBRANCH  25  26
ENDBRANCH  24  25
ENDBRANCH  22  24
ENDBRANCH  19  20
ENDBRANCH  18  19
ENDBRANCH  17  18
ENDBRANCH  16  17
ENDBRANCH   1  15
TORSDOF 17
ENDMDL
MODEL 9
REMARK VINA RESULT:      -7.0      2.357      5.398
REMARK  17 active torsions:
REMARK  status: ('A' for Active; 'I' for Inactive)
REMARK    1  A    between atoms: C_2  and  C_3 
REMARK    2  A    between atoms: C_3  and  C_4 
REMARK    3  A    between atoms: C_4  and  C_5 
REMARK    4  A    between atoms: C_5  and  C_6 
REMARK    5  A    between atoms: C_7  and  C_8 
REMARK    6  A    between atoms: C_8  and  C_9 
REMARK    7  A    between atoms: C_10  and  C_11 
REMARK    8  A    between atoms: C_11  and  C_12 
REMARK    9  A    between atoms: C_13  and  C_14 
REMARK   10  A    between atoms: C_14  and  C_15 
REMARK   11  A    between atoms: C_16  and  C_17 
REMARK   12  A    between atoms: C_17  and  C_18 
REMARK   13  A    between atoms: C_18  and  C_19 
REMARK   14  A    between atoms: C_19  and  C_20 
REMARK       I    between atoms: C_20  and  N_22 
REMARK   15  A    between atoms: N_22  and  C_23 
REMARK   16  A    between atoms: C_23  and  C_24 
REMARK   17  A    between atoms: C_24  and  O_25 
ROOT
HETATM    1  C   UNL     1     -22.002  -6.013  -1.833  1.00  0.00     0.053 C 
ENDROOT
BRANCH   1   2
HETATM    2  C   UNL     1     -22.426  -7.164  -0.973  1.00  0.00    -0.027 C 
HETATM    3  C   UNL     1     -21.642  -7.721  -0.037  1.00  0.00    -0.027 C 
BRANCH   3   4
HETATM    4  C   UNL     1     -22.061  -8.884   0.807  1.00  0.00     0.053 C 
BRANCH   4   5
HETATM    5  C   UNL     1     -22.503 -10.038  -0.039  1.00  0.00    -0.027 C 
HETATM    6  C   UNL     1     -23.752 -10.530  -0.036  1.00  0.00    -0.027 C 
BRANCH   6   7
HETATM    7  C   UNL     1     -24.192 -11.688  -0.879  1.00  0.00     0.053 C 
BRANCH   7   8
HETATM    8  C   UNL     1     -23.576 -12.963  -0.397  1.00  0.00    -0.027 C 
HETATM    9  C   UNL     1     -23.227 -13.185   0.882  1.00  0.00    -0.030 C 
BRANCH   9  10
HETATM   10  C   UNL     1     -22.635 -14.472   1.363  1.00  0.00     0.027 C 
BRANCH  10  11
HETATM   11  C   UNL     1     -22.794 -14.615   2.876  1.00  0.00     0.004 C 
BRANCH  11  12
HETATM   12  C   UNL     1     -24.270 -14.685   3.263  1.00  0.00    -0.000 C 
BRANCH  12  13
HETATM   13  C   UNL     1     -24.577 -15.947   4.065  1.00  0.00    -0.005 C 
HETATM   14  C   UNL     1     -24.404 -15.705   5.554  1.00  0.00     0.005 C 
ENDBRANCH  12  13
ENDBRANCH  11  12
ENDBRANCH  10  11
ENDBRANCH   9  10
ENDBRANCH   7   8
ENDBRANCH   6   7
ENDBRANCH   4   5
ENDBRANCH   3   4
ENDBRANCH   1   2
BRANCH   1  15
HETATM   15  C   UNL     1     -21.959  -6.412  -3.276  1.00  0.00    -0.027 C 
HETATM   16  C   UNL     1     -20.875  -6.266  -4.051  1.00  0.00    -0.030 C 
BRANCH  16  17
HETATM   17  C   UNL     1     -20.814  -6.708  -5.482  1.00  0.00     0.027 C 
BRANCH  17  18
HETATM   18  C   UNL     1     -20.394  -5.575  -6.414  1.00  0.00     0.013 C 
BRANCH  18  19
HETATM   19  C   UNL     1     -20.911  -5.734  -7.848  1.00  0.00     0.103 C 
BRANCH  19  20
HETATM   20  C   UNL     1     -21.609  -4.471  -8.309  1.00  0.00     0.217 C 
HETATM   21  O   UNL     1     -21.563  -3.411  -7.695  1.00  0.00    -0.274 OA
HETATM   22  N   UNL     1     -22.296  -4.615  -9.492  1.00  0.00    -0.359 N 
HETATM   23  H   UNL     1     -22.280  -5.500  -9.985  1.00  0.00     0.162 HD
BRANCH  22  24
HETATM   24  C   UNL     1     -23.059  -3.505 -10.046  1.00  0.00     0.148 C 
BRANCH  24  25
HETATM   25  C   UNL     1     -24.467  -3.424  -9.460  1.00  0.00     0.183 C 
BRANCH  25  26
HETATM   26  O   UNL     1     -25.423  -3.249 -10.505  1.00  0.00    -0.399 OA
HETATM   27  H   UNL     1     -25.810  -2.367 -10.368  1.00  0.00     0.209 HD
ENDBRANCH  25  26
ENDBRANCH  24  25
ENDBRANCH  22  24
ENDBRANCH  19  20
ENDBRANCH  18  19
ENDBRANCH  17  18
ENDBRANCH  16  17
ENDBRANCH   1  15
TORSDOF 17
ENDMDL
