MODEL 1
REMARK VINA RESULT:      -9.3      0.000      0.000
REMARK  7 active torsions:
REMARK  status: ('A' for Active; 'I' for Inactive)
REMARK    1  A    between atoms: O_1  and  C_2 
REMARK    2  A    between atoms: C_7  and  O_8 
REMARK    3  A    between atoms: N_10  and  C_11 
REMARK    4  A    between atoms: C_11  and  N_13 
REMARK    5  A    between atoms: N_13  and  C_14 
REMARK    6  A    between atoms: C_14  and  C_15 
REMARK    7  A    between atoms: C_15  and  C_16 
ROOT
HETATM    1  C   UNL     1     -23.395  -4.048 -10.516  1.00  0.00     0.099 A 
HETATM    2  C   UNL     1     -22.008  -3.982 -10.398  1.00  0.00     0.047 A 
HETATM    3  C   UNL     1     -21.402  -3.971  -9.131  1.00  0.00    -0.047 A 
HETATM    4  C   UNL     1     -22.205  -4.012  -7.968  1.00  0.00    -0.031 A 
HETATM    5  C   UNL     1     -23.606  -4.081  -8.109  1.00  0.00     0.048 A 
HETATM    6  C   UNL     1     -24.192  -4.097  -9.374  1.00  0.00     0.099 A 
HETATM    7  C   UNL     1     -21.583  -3.992  -6.590  1.00  0.00     0.164 C 
HETATM    8  N   UNL     1     -20.811  -5.221  -6.328  1.00  0.00    -0.354 N 
HETATM    9  C   UNL     1     -19.439  -5.216  -6.852  1.00  0.00     0.126 C 
HETATM   10  C   UNL     1     -19.344  -5.220  -8.380  1.00  0.00     0.025 C 
HETATM   11  C   UNL     1     -19.896  -3.947  -9.029  1.00  0.00     0.041 C 
ENDROOT
BRANCH   8  12
HETATM   12  C   UNL     1     -21.351  -6.271  -5.572  1.00  0.00     0.170 C 
HETATM   13  S   UNL     1     -21.215  -7.895  -6.002  1.00  0.00    -0.041 SA
BRANCH  12  14
HETATM   14  N   UNL     1     -21.999  -5.861  -4.412  1.00  0.00    -0.367 N 
HETATM   15  H   UNL     1     -22.694  -5.142  -4.540  1.00  0.00     0.161 HD
BRANCH  14  16
HETATM   16  C   UNL     1     -21.337  -5.848  -3.101  1.00  0.00     0.126 C 
BRANCH  16  17
HETATM   17  C   UNL     1     -22.248  -6.166  -1.911  1.00  0.00     0.058 C 
BRANCH  17  18
HETATM   18  C   UNL     1     -21.919  -7.457  -1.202  1.00  0.00    -0.057 A 
HETATM   19  C   UNL     1     -22.511  -7.771   0.031  1.00  0.00     0.009 A 
HETATM   20  C   UNL     1     -22.180  -8.953   0.697  1.00  0.00     0.024 A 
HETATM   21  C   UNL     1     -21.268  -9.835   0.126  1.00  0.00     0.034 A 
HETATM   22 CL   UNL     1     -20.835 -11.276   0.959  1.00  0.00    -0.084 Cl
HETATM   23  C   UNL     1     -20.703  -9.557  -1.116  1.00  0.00     0.024 A 
HETATM   24  C   UNL     1     -21.032  -8.374  -1.781  1.00  0.00     0.009 A 
ENDBRANCH  17  18
ENDBRANCH  16  17
ENDBRANCH  14  16
ENDBRANCH  12  14
ENDBRANCH   8  12
BRANCH   6  25
HETATM   25  O   UNL     1     -25.550  -4.171  -9.511  1.00  0.00    -0.358 OA
HETATM   26  H   UNL     1     -25.788  -3.944 -10.423  1.00  0.00     0.217 HD
ENDBRANCH   6  25
BRANCH   1  27
HETATM   27  O   UNL     1     -23.984  -4.082 -11.748  1.00  0.00    -0.358 OA
HETATM   28  H   UNL     1     -23.336  -4.380 -12.403  1.00  0.00     0.217 HD
ENDBRANCH   1  27
TORSDOF 7
BEGIN_RES ARG D 557
REMARK  4 active torsions:
REMARK  status: ('A' for Active; 'I' for Inactive)
REMARK    1  A    between atoms: CA   and  CB  
REMARK    2  A    between atoms: CB   and  CG  
REMARK    3  A    between atoms: CG   and  CD  
REMARK    4  A    between atoms: CD   and  NE  
REMARK       I    between atoms: NE   and  CZ  
REMARK       I    between atoms: CZ   and  NH1 
REMARK       I    between atoms: CZ   and  NH2 
ROOT
ATOM      1  CA  ARG D 557     -26.217   2.705 -17.014  1.00 35.49     0.159 C 
ENDROOT
BRANCH   1   2
ATOM      2  CB  ARG D 557     -26.789   1.319 -17.183  1.00 35.49     0.034 C 
BRANCH   2   3
ATOM      3  CG  ARG D 557     -25.855   0.196 -17.036  1.00 35.49     0.027 C 
BRANCH   3   4
ATOM      4  CD  ARG D 557     -26.217  -0.696 -15.911  1.00 35.49     0.116 C 
BRANCH   4   5
ATOM      5  NE  ARG D 557     -25.167  -0.787 -14.931  1.00 35.49    -0.212 N 
ATOM      6  CZ  ARG D 557     -24.760  -1.888 -14.340  1.00 35.49     0.666 C 
ATOM      7  NH1 ARG D 557     -25.305  -3.066 -14.585  1.00 35.49    -0.235 N 
ATOM      8  NH2 ARG D 557     -23.779  -1.787 -13.492  1.00 35.49    -0.235 N 
ATOM      9  HH  ARG D 557     -25.950  -3.156 -15.141  1.00 35.49     0.174 HD
ATOM     10  HH  ARG D 557     -24.996  -3.750 -14.171  1.00 35.49     0.174 HD
ATOM     11  HH  ARG D 557     -23.442  -1.014 -13.359  1.00 35.49     0.174 HD
ATOM     12  HH  ARG D 557     -23.487  -2.476 -13.093  1.00 35.49     0.174 HD
ATOM     13  HE  ARG D 557     -24.810  -0.064 -14.661  1.00 35.49     0.178 HD
ENDBRANCH   4   5
ENDBRANCH   3   4
ENDBRANCH   2   3
ENDBRANCH   1   2
END_RES ARG D 557
BEGIN_RES GLU D 570
REMARK  3 active torsions:
REMARK  status: ('A' for Active; 'I' for Inactive)
REMARK    5  A    between atoms: CA   and  CB  
REMARK    6  A    between atoms: CB   and  CG  
REMARK    7  A    between atoms: CG   and  CD  
ROOT
ATOM     14  CA  GLU D 570     -18.033  -6.348 -13.375  1.00 32.92     0.160 C 
ENDROOT
BRANCH  14  15
ATOM     15  CB  GLU D 570     -19.500  -6.345 -13.794  1.00 32.92     0.043 C 
BRANCH  15  16
ATOM     16  CG  GLU D 570     -20.408  -5.394 -13.102  1.00 32.92     0.100 C 
BRANCH  16  17
ATOM     17  CD  GLU D 570     -21.723  -5.205 -13.821  1.00 32.92     0.185 C 
ATOM     18  OE1 GLU D 570     -22.299  -6.200 -14.300  1.00 32.92    -0.647 OA
ATOM     19  OE2 GLU D 570     -22.173  -4.046 -13.922  1.00 32.92    -0.647 OA
ENDBRANCH  16  17
ENDBRANCH  15  16
ENDBRANCH  14  15
END_RES GLU D 570
ENDMDL
MODEL 2
REMARK VINA RESULT:      -9.1      1.821      2.311
REMARK  7 active torsions:
REMARK  status: ('A' for Active; 'I' for Inactive)
REMARK    1  A    between atoms: O_1  and  C_2 
REMARK    2  A    between atoms: C_7  and  O_8 
REMARK    3  A    between atoms: N_10  and  C_11 
REMARK    4  A    between atoms: C_11  and  N_13 
REMARK    5  A    between atoms: N_13  and  C_14 
REMARK    6  A    between atoms: C_14  and  C_15 
REMARK    7  A    between atoms: C_15  and  C_16 
ROOT
HETATM    1  C   UNL     1     -24.128  -3.439 -11.172  1.00  0.00     0.099 A 
HETATM    2  C   UNL     1     -22.746  -3.552 -11.313  1.00  0.00     0.047 A 
HETATM    3  C   UNL     1     -21.921  -3.632 -10.179  1.00  0.00    -0.047 A 
HETATM    4  C   UNL     1     -22.495  -3.582  -8.887  1.00  0.00    -0.031 A 
HETATM    5  C   UNL     1     -23.894  -3.471  -8.767  1.00  0.00     0.048 A 
HETATM    6  C   UNL     1     -24.701  -3.398  -9.902  1.00  0.00     0.099 A 
HETATM    7  C   UNL     1     -21.632  -3.656  -7.647  1.00  0.00     0.164 C 
HETATM    8  N   UNL     1     -20.988  -4.977  -7.517  1.00  0.00    -0.354 N 
HETATM    9  C   UNL     1     -19.746  -5.141  -8.284  1.00  0.00     0.126 C 
HETATM   10  C   UNL     1     -19.936  -5.141  -9.803  1.00  0.00     0.025 C 
HETATM   11  C   UNL     1     -20.431  -3.801 -10.356  1.00  0.00     0.041 C 
ENDROOT
BRANCH   8  12
HETATM   12  C   UNL     1     -21.508  -5.957  -6.660  1.00  0.00     0.170 C 
HETATM   13  S   UNL     1     -22.996  -5.818  -5.881  1.00  0.00    -0.041 SA
BRANCH  12  14
HETATM   14  N   UNL     1     -20.696  -7.077  -6.519  1.00  0.00    -0.367 N 
HETATM   15  H   UNL     1     -20.277  -7.413  -7.372  1.00  0.00     0.161 HD
BRANCH  14  16
HETATM   16  C   UNL     1     -20.950  -8.113  -5.509  1.00  0.00     0.126 C 
BRANCH  16  17
HETATM   17  C   UNL     1     -20.060  -8.037  -4.265  1.00  0.00     0.058 C 
BRANCH  17  18
HETATM   18  C   UNL     1     -20.819  -7.965  -2.961  1.00  0.00    -0.057 A 
HETATM   19  C   UNL     1     -20.829  -9.052  -2.075  1.00  0.00     0.009 A 
HETATM   20  C   UNL     1     -21.557  -8.991  -0.885  1.00  0.00     0.024 A 
HETATM   21  C   UNL     1     -22.266  -7.836  -0.567  1.00  0.00     0.034 A 
HETATM   22 CL   UNL     1     -23.189  -7.770   0.883  1.00  0.00    -0.084 Cl
HETATM   23  C   UNL     1     -22.232  -6.734  -1.417  1.00  0.00     0.024 A 
HETATM   24  C   UNL     1     -21.506  -6.796  -2.609  1.00  0.00     0.009 A 
ENDBRANCH  17  18
ENDBRANCH  16  17
ENDBRANCH  14  16
ENDBRANCH  12  14
ENDBRANCH   8  12
BRANCH   6  25
HETATM   25  O   UNL     1     -26.059  -3.297  -9.786  1.00  0.00    -0.358 OA
HETATM   26  H   UNL     1     -26.461  -4.143 -10.035  1.00  0.00     0.217 HD
ENDBRANCH   6  25
BRANCH   1  27
HETATM   27  O   UNL     1     -24.934  -3.383 -12.274  1.00  0.00    -0.358 OA
HETATM   28  H   UNL     1     -25.032  -4.274 -12.642  1.00  0.00     0.217 HD
ENDBRANCH   1  27
TORSDOF 7
BEGIN_RES ARG D 557
REMARK  4 active torsions:
REMARK  status: ('A' for Active; 'I' for Inactive)
REMARK    1  A    between atoms: CA   and  CB  
REMARK    2  A    between atoms: CB   and  CG  
REMARK    3  A    between atoms: CG   and  CD  
REMARK    4  A    between atoms: CD   and  NE  
REMARK       I    between atoms: NE   and  CZ  
REMARK       I    between atoms: CZ   and  NH1 
REMARK       I    between atoms: CZ   and  NH2 
ROOT
ATOM      1  CA  ARG D 557     -26.217   2.705 -17.014  1.00 35.49     0.159 C 
ENDROOT
BRANCH   1   2
ATOM      2  CB  ARG D 557     -26.789   1.319 -17.183  1.00 35.49     0.034 C 
BRANCH   2   3
ATOM      3  CG  ARG D 557     -28.232   1.168 -16.961  1.00 35.49     0.027 C 
BRANCH   3   4
ATOM      4  CD  ARG D 557     -28.622  -0.239 -16.718  1.00 35.49     0.116 C 
BRANCH   4   5
ATOM      5  NE  ARG D 557     -27.592  -0.977 -16.035  1.00 35.49    -0.212 N 
ATOM      6  CZ  ARG D 557     -27.414  -2.278 -16.089  1.00 35.49     0.666 C 
ATOM      7  NH1 ARG D 557     -28.200  -3.072 -16.792  1.00 35.49    -0.235 N 
ATOM      8  NH2 ARG D 557     -26.414  -2.775 -15.421  1.00 35.49    -0.235 N 
ATOM      9  HH  ARG D 557     -28.863  -2.766 -17.240  1.00 35.49     0.174 HD
ATOM     10  HH  ARG D 557     -28.034  -3.913 -16.792  1.00 35.49     0.174 HD
ATOM     11  HH  ARG D 557     -25.918  -2.237 -14.982  1.00 35.49     0.174 HD
ATOM     12  HH  ARG D 557     -26.264  -3.610 -15.435  1.00 35.49     0.174 HD
ATOM     13  HE  ARG D 557     -27.084  -0.552 -15.501  1.00 35.49     0.178 HD
ENDBRANCH   4   5
ENDBRANCH   3   4
ENDBRANCH   2   3
ENDBRANCH   1   2
END_RES ARG D 557
BEGIN_RES GLU D 570
REMARK  3 active torsions:
REMARK  status: ('A' for Active; 'I' for Inactive)
REMARK    5  A    between atoms: CA   and  CB  
REMARK    6  A    between atoms: CB   and  CG  
REMARK    7  A    between atoms: CG   and  CD  
ROOT
ATOM     14  CA  GLU D 570     -18.033  -6.348 -13.375  1.00 32.92     0.160 C 
ENDROOT
BRANCH  14  15
ATOM     15  CB  GLU D 570     -19.500  -6.345 -13.794  1.00 32.92     0.043 C 
BRANCH  15  16
ATOM     16  CG  GLU D 570     -19.805  -6.038 -15.215  1.00 32.92     0.100 C 
BRANCH  16  17
ATOM     17  CD  GLU D 570     -21.189  -5.463 -15.410  1.00 32.92     0.185 C 
ATOM     18  OE1 GLU D 570     -21.985  -5.464 -14.451  1.00 32.92    -0.647 OA
ATOM     19  OE2 GLU D 570     -21.486  -5.022 -16.538  1.00 32.92    -0.647 OA
ENDBRANCH  16  17
ENDBRANCH  15  16
ENDBRANCH  14  15
END_RES GLU D 570
ENDMDL
MODEL 3
REMARK VINA RESULT:      -8.8      2.640      4.264
REMARK  7 active torsions:
REMARK  status: ('A' for Active; 'I' for Inactive)
REMARK    1  A    between atoms: O_1  and  C_2 
REMARK    2  A    between atoms: C_7  and  O_8 
REMARK    3  A    between atoms: N_10  and  C_11 
REMARK    4  A    between atoms: C_11  and  N_13 
REMARK    5  A    between atoms: N_13  and  C_14 
REMARK    6  A    between atoms: C_14  and  C_15 
REMARK    7  A    between atoms: C_15  and  C_16 
ROOT
HETATM    1  C   UNL     1     -23.860  -2.775 -14.048  1.00  0.00     0.099 A 
HETATM    2  C   UNL     1     -24.644  -2.719 -12.897  1.00  0.00     0.047 A 
HETATM    3  C   UNL     1     -24.339  -3.528 -11.789  1.00  0.00    -0.047 A 
HETATM    4  C   UNL     1     -23.240  -4.415 -11.849  1.00  0.00    -0.031 A 
HETATM    5  C   UNL     1     -22.459  -4.455 -13.021  1.00  0.00     0.048 A 
HETATM    6  C   UNL     1     -22.770  -3.642 -14.110  1.00  0.00     0.099 A 
HETATM    7  C   UNL     1     -22.892  -5.307 -10.678  1.00  0.00     0.164 C 
HETATM    8  N   UNL     1     -22.434  -4.518  -9.518  1.00  0.00    -0.354 N 
HETATM    9  C   UNL     1     -23.507  -3.975  -8.674  1.00  0.00     0.126 C 
HETATM   10  C   UNL     1     -24.358  -2.896  -9.348  1.00  0.00     0.025 C 
HETATM   11  C   UNL     1     -25.173  -3.415 -10.537  1.00  0.00     0.041 C 
ENDROOT
BRANCH   8  12
HETATM   12  C   UNL     1     -21.070  -4.376  -9.230  1.00  0.00     0.170 C 
HETATM   13  S   UNL     1     -19.844  -4.702 -10.340  1.00  0.00    -0.041 SA
BRANCH  12  14
HETATM   14  N   UNL     1     -20.805  -3.919  -7.944  1.00  0.00    -0.367 N 
HETATM   15  H   UNL     1     -20.524  -2.953  -7.882  1.00  0.00     0.161 HD
BRANCH  14  16
HETATM   16  C   UNL     1     -20.257  -4.787  -6.895  1.00  0.00     0.126 C 
BRANCH  16  17
HETATM   17  C   UNL     1     -20.866  -6.191  -6.830  1.00  0.00     0.058 C 
BRANCH  17  18
HETATM   18  C   UNL     1     -21.083  -6.711  -5.429  1.00  0.00    -0.057 A 
HETATM   19  C   UNL     1     -21.203  -8.088  -5.185  1.00  0.00     0.009 A 
HETATM   20  C   UNL     1     -21.434  -8.562  -3.892  1.00  0.00     0.024 A 
HETATM   21  C   UNL     1     -21.529  -7.664  -2.834  1.00  0.00     0.034 A 
HETATM   22 CL   UNL     1     -21.845  -8.243  -1.245  1.00  0.00    -0.084 Cl
HETATM   23  C   UNL     1     -21.372  -6.298  -3.054  1.00  0.00     0.024 A 
HETATM   24  C   UNL     1     -21.144  -5.823  -4.348  1.00  0.00     0.009 A 
ENDBRANCH  17  18
ENDBRANCH  16  17
ENDBRANCH  14  16
ENDBRANCH  12  14
ENDBRANCH   8  12
BRANCH   6  25
HETATM   25  O   UNL     1     -22.009  -3.675 -15.245  1.00  0.00    -0.358 OA
HETATM   26  H   UNL     1     -21.549  -4.527 -15.291  1.00  0.00     0.217 HD
ENDBRANCH   6  25
BRANCH   1  27
HETATM   27  O   UNL     1     -24.142  -1.973 -15.117  1.00  0.00    -0.358 OA
HETATM   28  H   UNL     1     -25.002  -1.547 -14.978  1.00  0.00     0.217 HD
ENDBRANCH   1  27
TORSDOF 7
BEGIN_RES ARG D 557
REMARK  4 active torsions:
REMARK  status: ('A' for Active; 'I' for Inactive)
REMARK    1  A    between atoms: CA   and  CB  
REMARK    2  A    between atoms: CB   and  CG  
REMARK    3  A    between atoms: CG   and  CD  
REMARK    4  A    between atoms: CD   and  NE  
REMARK       I    between atoms: NE   and  CZ  
REMARK       I    between atoms: CZ   and  NH1 
REMARK       I    between atoms: CZ   and  NH2 
ROOT
ATOM      1  CA  ARG D 557     -26.217   2.705 -17.014  1.00 35.49     0.159 C 
ENDROOT
BRANCH   1   2
ATOM      2  CB  ARG D 557     -26.789   1.319 -17.183  1.00 35.49     0.034 C 
BRANCH   2   3
ATOM      3  CG  ARG D 557     -28.210   1.147 -16.859  1.00 35.49     0.027 C 
BRANCH   3   4
ATOM      4  CD  ARG D 557     -28.650  -0.262 -16.979  1.00 35.49     0.116 C 
BRANCH   4   5
ATOM      5  NE  ARG D 557     -27.764  -1.167 -16.294  1.00 35.49    -0.212 N 
ATOM      6  CZ  ARG D 557     -27.770  -2.476 -16.401  1.00 35.49     0.666 C 
ATOM      7  NH1 ARG D 557     -28.632  -3.121 -17.166  1.00 35.49    -0.235 N 
ATOM      8  NH2 ARG D 557     -26.879  -3.139 -15.722  1.00 35.49    -0.235 N 
ATOM      9  HH  ARG D 557     -29.226  -2.705 -17.623  1.00 35.49     0.174 HD
ATOM     10  HH  ARG D 557     -28.587  -3.976 -17.198  1.00 35.49     0.174 HD
ATOM     11  HH  ARG D 557     -26.330  -2.695 -15.243  1.00 35.49     0.174 HD
ATOM     12  HH  ARG D 557     -26.850  -3.985 -15.769  1.00 35.49     0.174 HD
ATOM     13  HE  ARG D 557     -27.223  -0.841 -15.724  1.00 35.49     0.178 HD
ENDBRANCH   4   5
ENDBRANCH   3   4
ENDBRANCH   2   3
ENDBRANCH   1   2
END_RES ARG D 557
BEGIN_RES GLU D 570
REMARK  3 active torsions:
REMARK  status: ('A' for Active; 'I' for Inactive)
REMARK    5  A    between atoms: CA   and  CB  
REMARK    6  A    between atoms: CB   and  CG  
REMARK    7  A    between atoms: CG   and  CD  
ROOT
ATOM     14  CA  GLU D 570     -18.033  -6.348 -13.375  1.00 32.92     0.160 C 
ENDROOT
BRANCH  14  15
ATOM     15  CB  GLU D 570     -19.500  -6.345 -13.794  1.00 32.92     0.043 C 
BRANCH  15  16
ATOM     16  CG  GLU D 570     -19.797  -6.413 -15.248  1.00 32.92     0.100 C 
BRANCH  16  17
ATOM     17  CD  GLU D 570     -20.979  -7.298 -15.568  1.00 32.92     0.185 C 
ATOM     18  OE1 GLU D 570     -22.116  -6.792 -15.624  1.00 32.92    -0.647 OA
ATOM     19  OE2 GLU D 570     -20.768  -8.514 -15.746  1.00 32.92    -0.647 OA
ENDBRANCH  16  17
ENDBRANCH  15  16
ENDBRANCH  14  15
END_RES GLU D 570
ENDMDL
MODEL 4
REMARK VINA RESULT:      -8.4      4.308      7.960
REMARK  7 active torsions:
REMARK  status: ('A' for Active; 'I' for Inactive)
REMARK    1  A    between atoms: O_1  and  C_2 
REMARK    2  A    between atoms: C_7  and  O_8 
REMARK    3  A    between atoms: N_10  and  C_11 
REMARK    4  A    between atoms: C_11  and  N_13 
REMARK    5  A    between atoms: N_13  and  C_14 
REMARK    6  A    between atoms: C_14  and  C_15 
REMARK    7  A    between atoms: C_15  and  C_16 
ROOT
HETATM    1  C   UNL     1     -23.182 -10.728  -0.218  1.00  0.00     0.099 A 
HETATM    2  C   UNL     1     -23.184  -9.340  -0.096  1.00  0.00     0.047 A 
HETATM    3  C   UNL     1     -22.179  -8.571  -0.708  1.00  0.00    -0.047 A 
HETATM    4  C   UNL     1     -21.152  -9.212  -1.438  1.00  0.00    -0.031 A 
HETATM    5  C   UNL     1     -21.169 -10.616  -1.551  1.00  0.00     0.048 A 
HETATM    6  C   UNL     1     -22.177 -11.365  -0.944  1.00  0.00     0.099 A 
HETATM    7  C   UNL     1     -20.051  -8.413  -2.099  1.00  0.00     0.164 C 
HETATM    8  N   UNL     1     -20.574  -7.582  -3.200  1.00  0.00    -0.354 N 
HETATM    9  C   UNL     1     -21.143  -6.292  -2.788  1.00  0.00     0.126 C 
HETATM   10  C   UNL     1     -22.430  -6.401  -1.967  1.00  0.00     0.025 C 
HETATM   11  C   UNL     1     -22.229  -7.066  -0.602  1.00  0.00     0.041 C 
ENDROOT
BRANCH   8  12
HETATM   12  C   UNL     1     -20.458  -7.990  -4.536  1.00  0.00     0.170 C 
HETATM   13  S   UNL     1     -19.653  -9.392  -5.016  1.00  0.00    -0.041 SA
BRANCH  12  14
HETATM   14  N   UNL     1     -21.085  -7.145  -5.445  1.00  0.00    -0.367 N 
HETATM   15  H   UNL     1     -22.011  -7.429  -5.725  1.00  0.00     0.161 HD
BRANCH  14  16
HETATM   16  C   UNL     1     -20.343  -6.384  -6.458  1.00  0.00     0.126 C 
BRANCH  16  17
HETATM   17  C   UNL     1     -20.748  -4.913  -6.590  1.00  0.00     0.058 C 
BRANCH  17  18
HETATM   18  C   UNL     1     -21.106  -4.490  -7.994  1.00  0.00    -0.057 A 
HETATM   19  C   UNL     1     -22.398  -4.035  -8.300  1.00  0.00     0.009 A 
HETATM   20  C   UNL     1     -22.733  -3.674  -9.606  1.00  0.00     0.024 A 
HETATM   21  C   UNL     1     -21.773  -3.751 -10.612  1.00  0.00     0.034 A 
HETATM   22 CL   UNL     1     -22.192  -3.337 -12.228  1.00  0.00    -0.084 Cl
HETATM   23  C   UNL     1     -20.477  -4.162 -10.316  1.00  0.00     0.024 A 
HETATM   24  C   UNL     1     -20.142  -4.526  -9.009  1.00  0.00     0.009 A 
ENDBRANCH  17  18
ENDBRANCH  16  17
ENDBRANCH  14  16
ENDBRANCH  12  14
ENDBRANCH   8  12
BRANCH   6  25
HETATM   25  O   UNL     1     -22.198 -12.727  -1.059  1.00  0.00    -0.358 OA
HETATM   26  H   UNL     1     -22.296 -13.116  -0.177  1.00  0.00     0.217 HD
ENDBRANCH   6  25
BRANCH   1  27
HETATM   27  O   UNL     1     -24.171 -11.475   0.357  1.00  0.00    -0.358 OA
HETATM   28  H   UNL     1     -24.923 -10.901   0.565  1.00  0.00     0.217 HD
ENDBRANCH   1  27
TORSDOF 7
BEGIN_RES ARG D 557
REMARK  4 active torsions:
REMARK  status: ('A' for Active; 'I' for Inactive)
REMARK    1  A    between atoms: CA   and  CB  
REMARK    2  A    between atoms: CB   and  CG  
REMARK    3  A    between atoms: CG   and  CD  
REMARK    4  A    between atoms: CD   and  NE  
REMARK       I    between atoms: NE   and  CZ  
REMARK       I    between atoms: CZ   and  NH1 
REMARK       I    between atoms: CZ   and  NH2 
ROOT
ATOM      1  CA  ARG D 557     -26.217   2.705 -17.014  1.00 35.49     0.159 C 
ENDROOT
BRANCH   1   2
ATOM      2  CB  ARG D 557     -26.789   1.319 -17.183  1.00 35.49     0.034 C 
BRANCH   2   3
ATOM      3  CG  ARG D 557     -28.243   1.182 -17.036  1.00 35.49     0.027 C 
BRANCH   3   4
ATOM      4  CD  ARG D 557     -28.657  -0.220 -16.800  1.00 35.49     0.116 C 
BRANCH   4   5
ATOM      5  NE  ARG D 557     -27.649  -0.972 -16.100  1.00 35.49    -0.212 N 
ATOM      6  CZ  ARG D 557     -27.491  -2.276 -16.149  1.00 35.49     0.666 C 
ATOM      7  NH1 ARG D 557     -28.280  -3.060 -16.860  1.00 35.49    -0.235 N 
ATOM      8  NH2 ARG D 557     -26.509  -2.788 -15.466  1.00 35.49    -0.235 N 
ATOM      9  HH  ARG D 557     -28.932  -2.744 -17.319  1.00 35.49     0.174 HD
ATOM     10  HH  ARG D 557     -28.128  -3.903 -16.856  1.00 35.49     0.174 HD
ATOM     11  HH  ARG D 557     -26.011  -2.257 -15.021  1.00 35.49     0.174 HD
ATOM     12  HH  ARG D 557     -26.373  -3.625 -15.475  1.00 35.49     0.174 HD
ATOM     13  HE  ARG D 557     -27.142  -0.554 -15.560  1.00 35.49     0.178 HD
ENDBRANCH   4   5
ENDBRANCH   3   4
ENDBRANCH   2   3
ENDBRANCH   1   2
END_RES ARG D 557
BEGIN_RES GLU D 570
REMARK  3 active torsions:
REMARK  status: ('A' for Active; 'I' for Inactive)
REMARK    5  A    between atoms: CA   and  CB  
REMARK    6  A    between atoms: CB   and  CG  
REMARK    7  A    between atoms: CG   and  CD  
ROOT
ATOM     14  CA  GLU D 570     -18.033  -6.348 -13.375  1.00 32.92     0.160 C 
ENDROOT
BRANCH  14  15
ATOM     15  CB  GLU D 570     -19.500  -6.345 -13.794  1.00 32.92     0.043 C 
BRANCH  15  16
ATOM     16  CG  GLU D 570     -19.804  -6.061 -15.220  1.00 32.92     0.100 C 
BRANCH  16  17
ATOM     17  CD  GLU D 570     -21.238  -5.643 -15.445  1.00 32.92     0.185 C 
ATOM     18  OE1 GLU D 570     -22.076  -5.847 -14.546  1.00 32.92    -0.647 OA
ATOM     19  OE2 GLU D 570     -21.531  -5.121 -16.539  1.00 32.92    -0.647 OA
ENDBRANCH  16  17
ENDBRANCH  15  16
ENDBRANCH  14  15
END_RES GLU D 570
ENDMDL
MODEL 5
REMARK VINA RESULT:      -8.3      3.757      5.984
REMARK  7 active torsions:
REMARK  status: ('A' for Active; 'I' for Inactive)
REMARK    1  A    between atoms: O_1  and  C_2 
REMARK    2  A    between atoms: C_7  and  O_8 
REMARK    3  A    between atoms: N_10  and  C_11 
REMARK    4  A    between atoms: C_11  and  N_13 
REMARK    5  A    between atoms: N_13  and  C_14 
REMARK    6  A    between atoms: C_14  and  C_15 
REMARK    7  A    between atoms: C_15  and  C_16 
ROOT
HETATM    1  C   UNL     1     -22.209  -8.027  -0.099  1.00  0.00     0.099 A 
HETATM    2  C   UNL     1     -22.300  -7.195  -1.214  1.00  0.00     0.047 A 
HETATM    3  C   UNL     1     -21.403  -7.341  -2.285  1.00  0.00    -0.047 A 
HETATM    4  C   UNL     1     -20.393  -8.328  -2.226  1.00  0.00    -0.031 A 
HETATM    5  C   UNL     1     -20.319  -9.161  -1.092  1.00  0.00     0.048 A 
HETATM    6  C   UNL     1     -21.220  -9.008  -0.039  1.00  0.00     0.099 A 
HETATM    7  C   UNL     1     -19.406  -8.503  -3.359  1.00  0.00     0.164 C 
HETATM    8  N   UNL     1     -20.071  -8.988  -4.583  1.00  0.00    -0.354 N 
HETATM    9  C   UNL     1     -20.696  -7.944  -5.405  1.00  0.00     0.126 C 
HETATM   10  C   UNL     1     -21.905  -7.266  -4.755  1.00  0.00     0.025 C 
HETATM   11  C   UNL     1     -21.551  -6.459  -3.502  1.00  0.00     0.041 C 
ENDROOT
BRANCH   8  12
HETATM   12  C   UNL     1     -20.031 -10.343  -4.943  1.00  0.00     0.170 C 
HETATM   13  S   UNL     1     -18.654 -11.305  -4.798  1.00  0.00    -0.041 SA
BRANCH  12  14
HETATM   14  N   UNL     1     -21.239 -10.841  -5.418  1.00  0.00    -0.367 N 
HETATM   15  H   UNL     1     -21.687 -10.276  -6.123  1.00  0.00     0.161 HD
BRANCH  14  16
HETATM   16  C   UNL     1     -22.157 -11.619  -4.577  1.00  0.00     0.126 C 
BRANCH  16  17
HETATM   17  C   UNL     1     -22.861 -10.821  -3.475  1.00  0.00     0.058 C 
BRANCH  17  18
HETATM   18  C   UNL     1     -22.897 -11.512  -2.133  1.00  0.00    -0.057 A 
HETATM   19  C   UNL     1     -23.895 -11.207  -1.195  1.00  0.00     0.009 A 
HETATM   20  C   UNL     1     -23.906 -11.826   0.056  1.00  0.00     0.024 A 
HETATM   21  C   UNL     1     -22.929 -12.767   0.370  1.00  0.00     0.034 A 
HETATM   22 CL   UNL     1     -22.922 -13.508   1.922  1.00  0.00    -0.084 Cl
HETATM   23  C   UNL     1     -21.957 -13.110  -0.566  1.00  0.00     0.024 A 
HETATM   24  C   UNL     1     -21.943 -12.488  -1.816  1.00  0.00     0.009 A 
ENDBRANCH  17  18
ENDBRANCH  16  17
ENDBRANCH  14  16
ENDBRANCH  12  14
ENDBRANCH   8  12
BRANCH   6  25
HETATM   25  O   UNL     1     -21.153  -9.820   1.059  1.00  0.00    -0.358 OA
HETATM   26  H   UNL     1     -21.987  -9.756   1.549  1.00  0.00     0.217 HD
ENDBRANCH   6  25
BRANCH   1  27
HETATM   27  O   UNL     1     -23.094  -7.901   0.933  1.00  0.00    -0.358 OA
HETATM   28  H   UNL     1     -23.986  -8.107   0.614  1.00  0.00     0.217 HD
ENDBRANCH   1  27
TORSDOF 7
BEGIN_RES ARG D 557
REMARK  4 active torsions:
REMARK  status: ('A' for Active; 'I' for Inactive)
REMARK    1  A    between atoms: CA   and  CB  
REMARK    2  A    between atoms: CB   and  CG  
REMARK    3  A    between atoms: CG   and  CD  
REMARK    4  A    between atoms: CD   and  NE  
REMARK       I    between atoms: NE   and  CZ  
REMARK       I    between atoms: CZ   and  NH1 
REMARK       I    between atoms: CZ   and  NH2 
ROOT
ATOM      1  CA  ARG D 557     -26.217   2.705 -17.014  1.00 35.49     0.159 C 
ENDROOT
BRANCH   1   2
ATOM      2  CB  ARG D 557     -26.789   1.319 -17.183  1.00 35.49     0.034 C 
BRANCH   2   3
ATOM      3  CG  ARG D 557     -25.837   0.202 -17.143  1.00 35.49     0.027 C 
BRANCH   3   4
ATOM      4  CD  ARG D 557     -24.755   0.418 -16.155  1.00 35.49     0.116 C 
BRANCH   4   5
ATOM      5  NE  ARG D 557     -24.891  -0.439 -15.007  1.00 35.49    -0.212 N 
ATOM      6  CZ  ARG D 557     -24.064  -1.401 -14.665  1.00 35.49     0.666 C 
ATOM      7  NH1 ARG D 557     -22.992  -1.701 -15.375  1.00 35.49    -0.235 N 
ATOM      8  NH2 ARG D 557     -24.331  -2.064 -13.577  1.00 35.49    -0.235 N 
ATOM      9  HH  ARG D 557     -22.795  -1.276 -16.092  1.00 35.49     0.174 HD
ATOM     10  HH  ARG D 557     -22.487  -2.337 -15.101  1.00 35.49     0.174 HD
ATOM     11  HH  ARG D 557     -25.026  -1.844 -13.135  1.00 35.49     0.174 HD
ATOM     12  HH  ARG D 557     -23.819  -2.690 -13.322  1.00 35.49     0.174 HD
ATOM     13  HE  ARG D 557     -25.593  -0.363 -14.533  1.00 35.49     0.178 HD
ENDBRANCH   4   5
ENDBRANCH   3   4
ENDBRANCH   2   3
ENDBRANCH   1   2
END_RES ARG D 557
BEGIN_RES GLU D 570
REMARK  3 active torsions:
REMARK  status: ('A' for Active; 'I' for Inactive)
REMARK    5  A    between atoms: CA   and  CB  
REMARK    6  A    between atoms: CB   and  CG  
REMARK    7  A    between atoms: CG   and  CD  
ROOT
ATOM     14  CA  GLU D 570     -18.033  -6.348 -13.375  1.00 32.92     0.160 C 
ENDROOT
BRANCH  14  15
ATOM     15  CB  GLU D 570     -19.500  -6.345 -13.794  1.00 32.92     0.043 C 
BRANCH  15  16
ATOM     16  CG  GLU D 570     -20.441  -5.526 -12.987  1.00 32.92     0.100 C 
BRANCH  16  17
ATOM     17  CD  GLU D 570     -21.722  -5.206 -13.720  1.00 32.92     0.185 C 
ATOM     18  OE1 GLU D 570     -22.295  -4.123 -13.494  1.00 32.92    -0.647 OA
ATOM     19  OE2 GLU D 570     -22.167  -6.055 -14.518  1.00 32.92    -0.647 OA
ENDBRANCH  16  17
ENDBRANCH  15  16
ENDBRANCH  14  15
END_RES GLU D 570
ENDMDL
MODEL 6
REMARK VINA RESULT:      -8.3      4.104      7.879
REMARK  7 active torsions:
REMARK  status: ('A' for Active; 'I' for Inactive)
REMARK    1  A    between atoms: O_1  and  C_2 
REMARK    2  A    between atoms: C_7  and  O_8 
REMARK    3  A    between atoms: N_10  and  C_11 
REMARK    4  A    between atoms: C_11  and  N_13 
REMARK    5  A    between atoms: N_13  and  C_14 
REMARK    6  A    between atoms: C_14  and  C_15 
REMARK    7  A    between atoms: C_15  and  C_16 
ROOT
HETATM    1  C   UNL     1     -23.301 -11.748  -1.086  1.00  0.00     0.099 A 
HETATM    2  C   UNL     1     -23.215 -10.564  -0.357  1.00  0.00     0.047 A 
HETATM    3  C   UNL     1     -22.283  -9.575  -0.713  1.00  0.00    -0.047 A 
HETATM    4  C   UNL     1     -21.417  -9.789  -1.810  1.00  0.00    -0.031 A 
HETATM    5  C   UNL     1     -21.521 -10.992  -2.536  1.00  0.00     0.048 A 
HETATM    6  C   UNL     1     -22.456 -11.961  -2.174  1.00  0.00     0.099 A 
HETATM    7  C   UNL     1     -20.396  -8.748  -2.212  1.00  0.00     0.164 C 
HETATM    8  N   UNL     1     -21.046  -7.525  -2.721  1.00  0.00    -0.354 N 
HETATM    9  C   UNL     1     -21.478  -6.575  -1.687  1.00  0.00     0.126 C 
HETATM   10  C   UNL     1     -22.623  -7.078  -0.805  1.00  0.00     0.025 C 
HETATM   11  C   UNL     1     -22.242  -8.281   0.064  1.00  0.00     0.041 C 
ENDROOT
BRANCH   8  12
HETATM   12  C   UNL     1     -21.162  -7.284  -4.097  1.00  0.00     0.170 C 
HETATM   13  S   UNL     1     -20.859  -8.449  -5.276  1.00  0.00    -0.041 SA
BRANCH  12  14
HETATM   14  N   UNL     1     -21.574  -5.994  -4.415  1.00  0.00    -0.367 N 
HETATM   15  H   UNL     1     -22.099  -5.523  -3.696  1.00  0.00     0.161 HD
BRANCH  14  16
HETATM   16  C   UNL     1     -21.907  -5.588  -5.786  1.00  0.00     0.126 C 
BRANCH  16  17
HETATM   17  C   UNL     1     -20.865  -4.697  -6.469  1.00  0.00     0.058 C 
BRANCH  17  18
HETATM   18  C   UNL     1     -21.107  -4.474  -7.943  1.00  0.00    -0.057 A 
HETATM   19  C   UNL     1     -22.370  -4.079  -8.411  1.00  0.00     0.009 A 
HETATM   20  C   UNL     1     -22.598  -3.903  -9.777  1.00  0.00     0.024 A 
HETATM   21  C   UNL     1     -21.559  -4.105 -10.682  1.00  0.00     0.034 A 
HETATM   22 CL   UNL     1     -21.845  -3.921 -12.368  1.00  0.00    -0.084 Cl
HETATM   23  C   UNL     1     -20.291  -4.458 -10.229  1.00  0.00     0.024 A 
HETATM   24  C   UNL     1     -20.064  -4.636  -8.862  1.00  0.00     0.009 A 
ENDBRANCH  17  18
ENDBRANCH  16  17
ENDBRANCH  14  16
ENDBRANCH  12  14
ENDBRANCH   8  12
BRANCH   6  25
HETATM   25  O   UNL     1     -22.562 -13.125  -2.882  1.00  0.00    -0.358 OA
HETATM   26  H   UNL     1     -22.765 -12.914  -3.806  1.00  0.00     0.217 HD
ENDBRANCH   6  25
BRANCH   1  27
HETATM   27  O   UNL     1     -24.222 -12.701  -0.755  1.00  0.00    -0.358 OA
HETATM   28  H   UNL     1     -23.767 -13.540  -0.588  1.00  0.00     0.217 HD
ENDBRANCH   1  27
TORSDOF 7
BEGIN_RES ARG D 557
REMARK  4 active torsions:
REMARK  status: ('A' for Active; 'I' for Inactive)
REMARK    1  A    between atoms: CA   and  CB  
REMARK    2  A    between atoms: CB   and  CG  
REMARK    3  A    between atoms: CG   and  CD  
REMARK    4  A    between atoms: CD   and  NE  
REMARK       I    between atoms: NE   and  CZ  
REMARK       I    between atoms: CZ   and  NH1 
REMARK       I    between atoms: CZ   and  NH2 
ROOT
ATOM      1  CA  ARG D 557     -26.217   2.705 -17.014  1.00 35.49     0.159 C 
ENDROOT
BRANCH   1   2
ATOM      2  CB  ARG D 557     -26.789   1.319 -17.183  1.00 35.49     0.034 C 
BRANCH   2   3
ATOM      3  CG  ARG D 557     -25.838   0.202 -17.138  1.00 35.49     0.027 C 
BRANCH   3   4
ATOM      4  CD  ARG D 557     -24.760   0.418 -16.146  1.00 35.49     0.116 C 
BRANCH   4   5
ATOM      5  NE  ARG D 557     -24.897  -0.443 -15.001  1.00 35.49    -0.212 N 
ATOM      6  CZ  ARG D 557     -24.079  -1.417 -14.670  1.00 35.49     0.666 C 
ATOM      7  NH1 ARG D 557     -23.016  -1.725 -15.389  1.00 35.49    -0.235 N 
ATOM      8  NH2 ARG D 557     -24.346  -2.082 -13.584  1.00 35.49    -0.235 N 
ATOM      9  HH  ARG D 557     -22.819  -1.299 -16.106  1.00 35.49     0.174 HD
ATOM     10  HH  ARG D 557     -22.517  -2.369 -15.123  1.00 35.49     0.174 HD
ATOM     11  HH  ARG D 557     -25.035  -1.856 -13.135  1.00 35.49     0.174 HD
ATOM     12  HH  ARG D 557     -23.839  -2.715 -13.336  1.00 35.49     0.174 HD
ATOM     13  HE  ARG D 557     -25.594  -0.362 -14.521  1.00 35.49     0.178 HD
ENDBRANCH   4   5
ENDBRANCH   3   4
ENDBRANCH   2   3
ENDBRANCH   1   2
END_RES ARG D 557
BEGIN_RES GLU D 570
REMARK  3 active torsions:
REMARK  status: ('A' for Active; 'I' for Inactive)
REMARK    5  A    between atoms: CA   and  CB  
REMARK    6  A    between atoms: CB   and  CG  
REMARK    7  A    between atoms: CG   and  CD  
ROOT
ATOM     14  CA  GLU D 570     -18.033  -6.348 -13.375  1.00 32.92     0.160 C 
ENDROOT
BRANCH  14  15
ATOM     15  CB  GLU D 570     -19.500  -6.345 -13.794  1.00 32.92     0.043 C 
BRANCH  15  16
ATOM     16  CG  GLU D 570     -19.811  -5.962 -15.195  1.00 32.92     0.100 C 
BRANCH  16  17
ATOM     17  CD  GLU D 570     -21.280  -5.689 -15.420  1.00 32.92     0.185 C 
ATOM     18  OE1 GLU D 570     -21.631  -4.566 -15.828  1.00 32.92    -0.647 OA
ATOM     19  OE2 GLU D 570     -22.089  -6.603 -15.168  1.00 32.92    -0.647 OA
ENDBRANCH  16  17
ENDBRANCH  15  16
ENDBRANCH  14  15
END_RES GLU D 570
ENDMDL
MODEL 7
REMARK VINA RESULT:      -8.2      1.516      2.076
REMARK  7 active torsions:
REMARK  status: ('A' for Active; 'I' for Inactive)
REMARK    1  A    between atoms: O_1  and  C_2 
REMARK    2  A    between atoms: C_7  and  O_8 
REMARK    3  A    between atoms: N_10  and  C_11 
REMARK    4  A    between atoms: C_11  and  N_13 
REMARK    5  A    between atoms: N_13  and  C_14 
REMARK    6  A    between atoms: C_14  and  C_15 
REMARK    7  A    between atoms: C_15  and  C_16 
ROOT
HETATM    1  C   UNL     1     -21.666  -4.066 -11.297  1.00  0.00     0.099 A 
HETATM    2  C   UNL     1     -20.515  -3.777 -10.566  1.00  0.00     0.047 A 
HETATM    3  C   UNL     1     -20.552  -3.754  -9.161  1.00  0.00    -0.047 A 
HETATM    4  C   UNL     1     -21.768  -4.012  -8.487  1.00  0.00    -0.031 A 
HETATM    5  C   UNL     1     -22.919  -4.304  -9.245  1.00  0.00     0.048 A 
HETATM    6  C   UNL     1     -22.865  -4.329 -10.638  1.00  0.00     0.099 A 
HETATM    7  C   UNL     1     -21.842  -3.985  -6.977  1.00  0.00     0.164 C 
HETATM    8  N   UNL     1     -21.060  -5.083  -6.379  1.00  0.00    -0.354 N 
HETATM    9  C   UNL     1     -19.624  -4.811  -6.226  1.00  0.00     0.126 C 
HETATM   10  C   UNL     1     -18.858  -4.691  -7.545  1.00  0.00     0.025 C 
HETATM   11  C   UNL     1     -19.282  -3.486  -8.390  1.00  0.00     0.041 C 
ENDROOT
BRANCH   8  12
HETATM   12  C   UNL     1     -21.680  -6.260  -5.935  1.00  0.00     0.170 C 
HETATM   13  S   UNL     1     -23.219  -6.299  -5.248  1.00  0.00    -0.041 SA
BRANCH  12  14
HETATM   14  N   UNL     1     -20.922  -7.409  -6.127  1.00  0.00    -0.367 N 
HETATM   15  H   UNL     1     -20.660  -7.595  -7.082  1.00  0.00     0.161 HD
BRANCH  14  16
HETATM   16  C   UNL     1     -21.076  -8.605  -5.288  1.00  0.00     0.126 C 
BRANCH  16  17
HETATM   17  C   UNL     1     -20.202  -8.631  -4.030  1.00  0.00     0.058 C 
BRANCH  17  18
HETATM   18  C   UNL     1     -20.964  -8.453  -2.739  1.00  0.00    -0.057 A 
HETATM   19  C   UNL     1     -21.324  -9.562  -1.959  1.00  0.00     0.009 A 
HETATM   20  C   UNL     1     -22.056  -9.395  -0.781  1.00  0.00     0.024 A 
HETATM   21  C   UNL     1     -22.417  -8.116  -0.369  1.00  0.00     0.034 A 
HETATM   22 CL   UNL     1     -23.346  -7.909   1.064  1.00  0.00    -0.084 Cl
HETATM   23  C   UNL     1     -22.033  -7.003  -1.112  1.00  0.00     0.024 A 
HETATM   24  C   UNL     1     -21.303  -7.170  -2.291  1.00  0.00     0.009 A 
ENDBRANCH  17  18
ENDBRANCH  16  17
ENDBRANCH  14  16
ENDBRANCH  12  14
ENDBRANCH   8  12
BRANCH   6  25
HETATM   25  O   UNL     1     -23.980  -4.619 -11.373  1.00  0.00    -0.358 OA
HETATM   26  H   UNL     1     -24.744  -4.171 -10.978  1.00  0.00     0.217 HD
ENDBRANCH   6  25
BRANCH   1  27
HETATM   27  O   UNL     1     -21.625  -4.110 -12.662  1.00  0.00    -0.358 OA
HETATM   28  H   UNL     1     -20.978  -4.775 -12.940  1.00  0.00     0.217 HD
ENDBRANCH   1  27
TORSDOF 7
BEGIN_RES ARG D 557
REMARK  4 active torsions:
REMARK  status: ('A' for Active; 'I' for Inactive)
REMARK    1  A    between atoms: CA   and  CB  
REMARK    2  A    between atoms: CB   and  CG  
REMARK    3  A    between atoms: CG   and  CD  
REMARK    4  A    between atoms: CD   and  NE  
REMARK       I    between atoms: NE   and  CZ  
REMARK       I    between atoms: CZ   and  NH1 
REMARK       I    between atoms: CZ   and  NH2 
ROOT
ATOM      1  CA  ARG D 557     -26.217   2.705 -17.014  1.00 35.49     0.159 C 
ENDROOT
BRANCH   1   2
ATOM      2  CB  ARG D 557     -26.789   1.319 -17.183  1.00 35.49     0.034 C 
BRANCH   2   3
ATOM      3  CG  ARG D 557     -26.544   0.366 -16.094  1.00 35.49     0.027 C 
BRANCH   3   4
ATOM      4  CD  ARG D 557     -25.108   0.041 -15.940  1.00 35.49     0.116 C 
BRANCH   4   5
ATOM      5  NE  ARG D 557     -24.843  -0.687 -14.727  1.00 35.49    -0.212 N 
ATOM      6  CZ  ARG D 557     -23.842  -1.516 -14.532  1.00 35.49     0.666 C 
ATOM      7  NH1 ARG D 557     -22.951  -1.785 -15.469  1.00 35.49    -0.235 N 
ATOM      8  NH2 ARG D 557     -23.744  -2.073 -13.360  1.00 35.49    -0.235 N 
ATOM      9  HH  ARG D 557     -22.995  -1.428 -16.246  1.00 35.49     0.174 HD
ATOM     10  HH  ARG D 557     -22.318  -2.332 -15.283  1.00 35.49     0.174 HD
ATOM     11  HH  ARG D 557     -24.329  -1.874 -12.772  1.00 35.49     0.174 HD
ATOM     12  HH  ARG D 557     -23.109  -2.610 -13.195  1.00 35.49     0.174 HD
ATOM     13  HE  ARG D 557     -25.409  -0.629 -14.095  1.00 35.49     0.178 HD
ENDBRANCH   4   5
ENDBRANCH   3   4
ENDBRANCH   2   3
ENDBRANCH   1   2
END_RES ARG D 557
BEGIN_RES GLU D 570
REMARK  3 active torsions:
REMARK  status: ('A' for Active; 'I' for Inactive)
REMARK    5  A    between atoms: CA   and  CB  
REMARK    6  A    between atoms: CB   and  CG  
REMARK    7  A    between atoms: CG   and  CD  
ROOT
ATOM     14  CA  GLU D 570     -18.033  -6.348 -13.375  1.00 32.92     0.160 C 
ENDROOT
BRANCH  14  15
ATOM     15  CB  GLU D 570     -19.500  -6.345 -13.794  1.00 32.92     0.043 C 
BRANCH  15  16
ATOM     16  CG  GLU D 570     -19.814  -5.921 -15.183  1.00 32.92     0.100 C 
BRANCH  16  17
ATOM     17  CD  GLU D 570     -21.293  -5.711 -15.415  1.00 32.92     0.185 C 
ATOM     18  OE1 GLU D 570     -21.707  -4.567 -15.682  1.00 32.92    -0.647 OA
ATOM     19  OE2 GLU D 570     -22.047  -6.699 -15.311  1.00 32.92    -0.647 OA
ENDBRANCH  16  17
ENDBRANCH  15  16
ENDBRANCH  14  15
END_RES GLU D 570
ENDMDL
MODEL 8
REMARK VINA RESULT:      -7.6      2.010      2.311
REMARK  7 active torsions:
REMARK  status: ('A' for Active; 'I' for Inactive)
REMARK    1  A    between atoms: O_1  and  C_2 
REMARK    2  A    between atoms: C_7  and  O_8 
REMARK    3  A    between atoms: N_10  and  C_11 
REMARK    4  A    between atoms: C_11  and  N_13 
REMARK    5  A    between atoms: N_13  and  C_14 
REMARK    6  A    between atoms: C_14  and  C_15 
REMARK    7  A    between atoms: C_15  and  C_16 
ROOT
HETATM    1  C   UNL     1     -22.147  -4.393 -11.090  1.00  0.00     0.099 A 
HETATM    2  C   UNL     1     -20.875  -4.312 -10.526  1.00  0.00     0.047 A 
HETATM    3  C   UNL     1     -20.722  -4.083  -9.148  1.00  0.00    -0.047 A 
HETATM    4  C   UNL     1     -21.865  -3.921  -8.332  1.00  0.00    -0.031 A 
HETATM    5  C   UNL     1     -23.141  -4.009  -8.921  1.00  0.00     0.048 A 
HETATM    6  C   UNL     1     -23.277  -4.242 -10.289  1.00  0.00     0.099 A 
HETATM    7  C   UNL     1     -21.733  -3.665  -6.847  1.00  0.00     0.164 C 
HETATM    8  N   UNL     1     -21.166  -4.833  -6.147  1.00  0.00    -0.354 N 
HETATM    9  C   UNL     1     -19.700  -4.921  -6.173  1.00  0.00     0.126 C 
HETATM   10  C   UNL     1     -19.107  -5.190  -7.558  1.00  0.00     0.025 C 
HETATM   11  C   UNL     1     -19.335  -4.047  -8.552  1.00  0.00     0.041 C 
ENDROOT
BRANCH   8  12
HETATM   12  C   UNL     1     -21.988  -5.734  -5.456  1.00  0.00     0.170 C 
HETATM   13  S   UNL     1     -23.630  -5.934  -5.780  1.00  0.00    -0.041 SA
BRANCH  12  14
HETATM   14  N   UNL     1     -21.327  -6.475  -4.483  1.00  0.00    -0.367 N 
HETATM   15  H   UNL     1     -21.198  -7.451  -4.701  1.00  0.00     0.161 HD
BRANCH  14  16
HETATM   16  C   UNL     1     -21.441  -6.176  -3.050  1.00  0.00     0.126 C 
BRANCH  16  17
HETATM   17  C   UNL     1     -20.702  -7.147  -2.124  1.00  0.00     0.058 C 
BRANCH  17  18
HETATM   18  C   UNL     1     -21.570  -8.242  -1.551  1.00  0.00    -0.057 A 
HETATM   19  C   UNL     1     -22.309  -8.032  -0.376  1.00  0.00     0.009 A 
HETATM   20  C   UNL     1     -23.086  -9.057   0.167  1.00  0.00     0.024 A 
HETATM   21  C   UNL     1     -23.142 -10.293  -0.471  1.00  0.00     0.034 A 
HETATM   22 CL   UNL     1     -24.073 -11.567   0.213  1.00  0.00    -0.084 Cl
HETATM   23  C   UNL     1     -22.446 -10.503  -1.658  1.00  0.00     0.024 A 
HETATM   24  C   UNL     1     -21.666  -9.479  -2.200  1.00  0.00     0.009 A 
ENDBRANCH  17  18
ENDBRANCH  16  17
ENDBRANCH  14  16
ENDBRANCH  12  14
ENDBRANCH   8  12
BRANCH   6  25
HETATM   25  O   UNL     1     -24.516  -4.334 -10.860  1.00  0.00    -0.358 OA
HETATM   26  H   UNL     1     -25.048  -4.968 -10.357  1.00  0.00     0.217 HD
ENDBRANCH   6  25
BRANCH   1  27
HETATM   27  O   UNL     1     -22.297  -4.637 -12.425  1.00  0.00    -0.358 OA
HETATM   28  H   UNL     1     -21.448  -4.497 -12.872  1.00  0.00     0.217 HD
ENDBRANCH   1  27
TORSDOF 7
BEGIN_RES ARG D 557
REMARK  4 active torsions:
REMARK  status: ('A' for Active; 'I' for Inactive)
REMARK    1  A    between atoms: CA   and  CB  
REMARK    2  A    between atoms: CB   and  CG  
REMARK    3  A    between atoms: CG   and  CD  
REMARK    4  A    between atoms: CD   and  NE  
REMARK       I    between atoms: NE   and  CZ  
REMARK       I    between atoms: CZ   and  NH1 
REMARK       I    between atoms: CZ   and  NH2 
ROOT
ATOM      1  CA  ARG D 557     -26.217   2.705 -17.014  1.00 35.49     0.159 C 
ENDROOT
BRANCH   1   2
ATOM      2  CB  ARG D 557     -26.789   1.319 -17.183  1.00 35.49     0.034 C 
BRANCH   2   3
ATOM      3  CG  ARG D 557     -28.233   1.226 -17.432  1.00 35.49     0.027 C 
BRANCH   3   4
ATOM      4  CD  ARG D 557     -28.908   0.298 -16.496  1.00 35.49     0.116 C 
BRANCH   4   5
ATOM      5  NE  ARG D 557     -29.323  -0.918 -17.144  1.00 35.49    -0.212 N 
ATOM      6  CZ  ARG D 557     -28.715  -2.080 -17.058  1.00 35.49     0.666 C 
ATOM      7  NH1 ARG D 557     -27.611  -2.252 -16.355  1.00 35.49    -0.235 N 
ATOM      8  NH2 ARG D 557     -29.244  -3.083 -17.696  1.00 35.49    -0.235 N 
ATOM      9  HH  ARG D 557     -27.246  -1.607 -15.925  1.00 35.49     0.174 HD
ATOM     10  HH  ARG D 557     -27.260  -3.034 -16.333  1.00 35.49     0.174 HD
ATOM     11  HH  ARG D 557     -29.961  -2.944 -18.136  1.00 35.49     0.174 HD
ATOM     12  HH  ARG D 557     -28.882  -3.850 -17.661  1.00 35.49     0.174 HD
ATOM     13  HE  ARG D 557     -29.985  -0.882 -17.676  1.00 35.49     0.178 HD
ENDBRANCH   4   5
ENDBRANCH   3   4
ENDBRANCH   2   3
ENDBRANCH   1   2
END_RES ARG D 557
BEGIN_RES GLU D 570
REMARK  3 active torsions:
REMARK  status: ('A' for Active; 'I' for Inactive)
REMARK    5  A    between atoms: CA   and  CB  
REMARK    6  A    between atoms: CB   and  CG  
REMARK    7  A    between atoms: CG   and  CD  
ROOT
ATOM     14  CA  GLU D 570     -18.033  -6.348 -13.375  1.00 32.92     0.160 C 
ENDROOT
BRANCH  14  15
ATOM     15  CB  GLU D 570     -19.500  -6.345 -13.794  1.00 32.92     0.043 C 
BRANCH  15  16
ATOM     16  CG  GLU D 570     -19.806  -6.033 -15.214  1.00 32.92     0.100 C 
BRANCH  16  17
ATOM     17  CD  GLU D 570     -21.283  -5.853 -15.473  1.00 32.92     0.185 C 
ATOM     18  OE1 GLU D 570     -21.985  -6.858 -15.700  1.00 32.92    -0.647 OA
ATOM     19  OE2 GLU D 570     -21.741  -4.693 -15.466  1.00 32.92    -0.647 OA
ENDBRANCH  16  17
ENDBRANCH  15  16
ENDBRANCH  14  15
END_RES GLU D 570
ENDMDL
MODEL 9
REMARK VINA RESULT:      -7.6      4.273      6.140
REMARK  7 active torsions:
REMARK  status: ('A' for Active; 'I' for Inactive)
REMARK    1  A    between atoms: O_1  and  C_2 
REMARK    2  A    between atoms: C_7  and  O_8 
REMARK    3  A    between atoms: N_10  and  C_11 
REMARK    4  A    between atoms: C_11  and  N_13 
REMARK    5  A    between atoms: N_13  and  C_14 
REMARK    6  A    between atoms: C_14  and  C_15 
REMARK    7  A    between atoms: C_15  and  C_16 
ROOT
HETATM    1  C   UNL     1     -20.814  -5.789  -4.936  1.00  0.00     0.099 A 
HETATM    2  C   UNL     1     -21.179  -5.917  -3.597  1.00  0.00     0.047 A 
HETATM    3  C   UNL     1     -21.526  -7.173  -3.071  1.00  0.00    -0.047 A 
HETATM    4  C   UNL     1     -21.518  -8.312  -3.910  1.00  0.00    -0.031 A 
HETATM    5  C   UNL     1     -21.143  -8.162  -5.260  1.00  0.00     0.048 A 
HETATM    6  C   UNL     1     -20.796  -6.909  -5.765  1.00  0.00     0.099 A 
HETATM    7  C   UNL     1     -21.895  -9.676  -3.376  1.00  0.00     0.164 C 
HETATM    8  N   UNL     1     -20.909 -10.160  -2.391  1.00  0.00    -0.354 N 
HETATM    9  C   UNL     1     -21.106  -9.667  -1.021  1.00  0.00     0.126 C 
HETATM   10  C   UNL     1     -20.865  -8.165  -0.849  1.00  0.00     0.025 C 
HETATM   11  C   UNL     1     -21.872  -7.294  -1.607  1.00  0.00     0.041 C 
ENDROOT
BRANCH   8  12
HETATM   12  C   UNL     1     -19.914 -11.079  -2.751  1.00  0.00     0.170 C 
HETATM   13  S   UNL     1     -19.896 -12.684  -2.235  1.00  0.00    -0.041 SA
BRANCH  12  14
HETATM   14  N   UNL     1     -18.940 -10.560  -3.597  1.00  0.00    -0.367 N 
HETATM   15  H   UNL     1     -18.452 -11.241  -4.157  1.00  0.00     0.161 HD
BRANCH  14  16
HETATM   16  C   UNL     1     -18.154  -9.367  -3.257  1.00  0.00     0.126 C 
BRANCH  16  17
HETATM   17  C   UNL     1     -16.747  -9.648  -2.720  1.00  0.00     0.058 C 
BRANCH  17  18
HETATM   18  C   UNL     1     -15.872 -10.444  -3.657  1.00  0.00    -0.057 A 
HETATM   19  C   UNL     1     -15.767 -10.097  -5.013  1.00  0.00     0.009 A 
HETATM   20  C   UNL     1     -14.980 -10.854  -5.882  1.00  0.00     0.024 A 
HETATM   21  C   UNL     1     -14.280 -11.955  -5.397  1.00  0.00     0.034 A 
HETATM   22 CL   UNL     1     -13.335 -12.909  -6.471  1.00  0.00    -0.084 Cl
HETATM   23  C   UNL     1     -14.341 -12.288  -4.046  1.00  0.00     0.024 A 
HETATM   24  C   UNL     1     -15.131 -11.532  -3.177  1.00  0.00     0.009 A 
ENDBRANCH  17  18
ENDBRANCH  16  17
ENDBRANCH  14  16
ENDBRANCH  12  14
ENDBRANCH   8  12
BRANCH   6  25
HETATM   25  O   UNL     1     -20.426  -6.765  -7.073  1.00  0.00    -0.358 OA
HETATM   26  H   UNL     1     -19.669  -7.342  -7.252  1.00  0.00     0.217 HD
ENDBRANCH   6  25
BRANCH   1  27
HETATM   27  O   UNL     1     -20.456  -4.573  -5.443  1.00  0.00    -0.358 OA
HETATM   28  H   UNL     1     -19.786  -4.699  -6.131  1.00  0.00     0.217 HD
ENDBRANCH   1  27
TORSDOF 7
BEGIN_RES ARG D 557
REMARK  4 active torsions:
REMARK  status: ('A' for Active; 'I' for Inactive)
REMARK    1  A    between atoms: CA   and  CB  
REMARK    2  A    between atoms: CB   and  CG  
REMARK    3  A    between atoms: CG   and  CD  
REMARK    4  A    between atoms: CD   and  NE  
REMARK       I    between atoms: NE   and  CZ  
REMARK       I    between atoms: CZ   and  NH1 
REMARK       I    between atoms: CZ   and  NH2 
ROOT
ATOM      1  CA  ARG D 557     -26.217   2.705 -17.014  1.00 35.49     0.159 C 
ENDROOT
BRANCH   1   2
ATOM      2  CB  ARG D 557     -26.789   1.319 -17.183  1.00 35.49     0.034 C 
BRANCH   2   3
ATOM      3  CG  ARG D 557     -25.921   0.196 -16.808  1.00 35.49     0.027 C 
BRANCH   3   4
ATOM      4  CD  ARG D 557     -26.658  -0.874 -16.097  1.00 35.49     0.116 C 
BRANCH   4   5
ATOM      5  NE  ARG D 557     -25.856  -1.502 -15.081  1.00 35.49    -0.212 N 
ATOM      6  CZ  ARG D 557     -25.892  -2.774 -14.751  1.00 35.49     0.666 C 
ATOM      7  NH1 ARG D 557     -26.708  -3.634 -15.331  1.00 35.49    -0.235 N 
ATOM      8  NH2 ARG D 557     -25.077  -3.175 -13.819  1.00 35.49    -0.235 N 
ATOM      9  HH  ARG D 557     -27.251  -3.392 -15.948  1.00 35.49     0.174 HD
ATOM     10  HH  ARG D 557     -26.684  -4.452 -15.077  1.00 35.49     0.174 HD
ATOM     11  HH  ARG D 557     -24.556  -2.599 -13.467  1.00 35.49     0.174 HD
ATOM     12  HH  ARG D 557     -25.068  -3.989 -13.582  1.00 35.49     0.174 HD
ATOM     13  HE  ARG D 557     -25.353  -1.007 -14.606  1.00 35.49     0.178 HD
ENDBRANCH   4   5
ENDBRANCH   3   4
ENDBRANCH   2   3
ENDBRANCH   1   2
END_RES ARG D 557
BEGIN_RES GLU D 570
REMARK  3 active torsions:
REMARK  status: ('A' for Active; 'I' for Inactive)
REMARK    5  A    between atoms: CA   and  CB  
REMARK    6  A    between atoms: CB   and  CG  
REMARK    7  A    between atoms: CG   and  CD  
ROOT
ATOM     14  CA  GLU D 570     -18.033  -6.348 -13.375  1.00 32.92     0.160 C 
ENDROOT
BRANCH  14  15
ATOM     15  CB  GLU D 570     -19.500  -6.345 -13.794  1.00 32.92     0.043 C 
BRANCH  15  16
ATOM     16  CG  GLU D 570     -20.451  -5.573 -12.953  1.00 32.92     0.100 C 
BRANCH  16  17
ATOM     17  CD  GLU D 570     -21.700  -5.164 -13.698  1.00 32.92     0.185 C 
ATOM     18  OE1 GLU D 570     -22.727  -4.885 -13.051  1.00 32.92    -0.647 OA
ATOM     19  OE2 GLU D 570     -21.655  -5.139 -14.944  1.00 32.92    -0.647 OA
ENDBRANCH  16  17
ENDBRANCH  15  16
ENDBRANCH  14  15
END_RES GLU D 570
ENDMDL
