MODEL 1
REMARK VINA RESULT:      -8.8      0.000      0.000
REMARK  10 active torsions:
REMARK  status: ('A' for Active; 'I' for Inactive)
REMARK    1  A    between atoms: O_2  and  C_3 
REMARK    2  A    between atoms: C_5  and  C_6 
REMARK    3  A    between atoms: C_6  and  N_7 
REMARK       I    between atoms: N_7  and  C_8 
REMARK    4  A    between atoms: C_8  and  C_10 
REMARK    5  A    between atoms: C_10  and  C_11 
REMARK    6  A    between atoms: C_11  and  C_12 
REMARK    7  A    between atoms: C_12  and  C_13 
REMARK    8  A    between atoms: C_13  and  C_14 
REMARK    9  A    between atoms: C_15  and  C_16 
REMARK   10  A    between atoms: C_21  and  O_22 
ROOT
HETATM    1  N   UNL     1     -20.564  -4.168  -7.781  1.00  0.00    -0.357 N 
HETATM    2  C   UNL     1     -20.301  -5.286  -7.036  1.00  0.00     0.217 C 
HETATM    3  O   UNL     1     -19.894  -6.348  -7.524  1.00  0.00    -0.274 OA
HETATM    4  H   UNL     1     -20.885  -3.334  -7.303  1.00  0.00     0.162 HD
ENDROOT
BRANCH   1   5
HETATM    5  C   UNL     1     -20.396  -4.164  -9.216  1.00  0.00     0.161 C 
BRANCH   5   6
HETATM    6  C   UNL     1     -21.647  -3.817  -9.994  1.00  0.00    -0.038 A 
HETATM    7  C   UNL     1     -21.605  -3.447 -11.349  1.00  0.00     0.048 A 
HETATM    8  C   UNL     1     -22.776  -3.161 -12.069  1.00  0.00     0.101 A 
HETATM    9  C   UNL     1     -24.007  -3.249 -11.415  1.00  0.00     0.099 A 
HETATM   10  C   UNL     1     -24.077  -3.626 -10.072  1.00  0.00     0.040 A 
HETATM   11  C   UNL     1     -22.898  -3.914  -9.374  1.00  0.00     0.012 A 
BRANCH   8  12
HETATM   12  O   UNL     1     -22.797  -2.789 -13.390  1.00  0.00    -0.353 OA
HETATM   13  C   UNL     1     -22.648  -3.827 -14.351  1.00  0.00     0.210 C 
ENDBRANCH   8  12
BRANCH   9  14
HETATM   14  O   UNL     1     -25.157  -2.959 -12.101  1.00  0.00    -0.358 OA
HETATM   15  H   UNL     1     -25.353  -3.681 -12.717  1.00  0.00     0.217 HD
ENDBRANCH   9  14
ENDBRANCH   5   6
ENDBRANCH   1   5
BRANCH   2  16
HETATM   16  C   UNL     1     -20.552  -5.100  -5.557  1.00  0.00     0.103 C 
BRANCH  16  17
HETATM   17  C   UNL     1     -20.657  -6.442  -4.840  1.00  0.00     0.010 C 
BRANCH  17  18
HETATM   18  C   UNL     1     -21.943  -6.560  -4.023  1.00  0.00     0.004 C 
BRANCH  18  19
HETATM   19  C   UNL     1     -21.693  -6.129  -2.578  1.00  0.00     0.027 C 
BRANCH  19  20
HETATM   20  C   UNL     1     -21.897  -7.268  -1.628  1.00  0.00    -0.030 C 
HETATM   21  C   UNL     1     -22.408  -7.113  -0.396  1.00  0.00    -0.027 C 
BRANCH  21  22
HETATM   22  C   UNL     1     -22.583  -8.252   0.575  1.00  0.00    -0.001 C 
HETATM   23  C   UNL     1     -23.110  -9.501  -0.133  1.00  0.00     0.013 C 
HETATM   24  C   UNL     1     -21.265  -8.567   1.280  1.00  0.00     0.013 C 
ENDBRANCH  21  22
ENDBRANCH  19  20
ENDBRANCH  18  19
ENDBRANCH  17  18
ENDBRANCH  16  17
ENDBRANCH   2  16
TORSDOF 10
BEGIN_RES THR D 550
REMARK  2 active torsions:
REMARK  status: ('A' for Active; 'I' for Inactive)
REMARK    1  A    between atoms: CA   and  CB  
REMARK    2  A    between atoms: CB   and  OG1 
ROOT
ATOM      1  CA  THR D 550     -23.815  -1.422  -4.360  1.00 30.31     0.186 C 
ENDROOT
BRANCH   1   2
ATOM      2  CB  THR D 550     -23.034  -2.690  -4.115  1.00 30.31     0.140 C 
ATOM      3  CG2 THR D 550     -22.081  -2.486  -3.062  1.00 30.31     0.034 C 
BRANCH   2   4
ATOM      4  OG1 THR D 550     -23.931  -3.724  -3.733  1.00 30.31    -0.382 OA
ATOM      5  HG1 THR D 550     -23.745  -3.980  -2.967  1.00 30.31     0.210 HD
ENDBRANCH   2   4
ENDBRANCH   1   2
END_RES THR D 550
BEGIN_RES GLU D 570
REMARK  3 active torsions:
REMARK  status: ('A' for Active; 'I' for Inactive)
REMARK    3  A    between atoms: CA   and  CB  
REMARK    4  A    between atoms: CB   and  CG  
REMARK    5  A    between atoms: CG   and  CD  
ROOT
ATOM      6  CA  GLU D 570     -18.033  -6.348 -13.375  1.00 32.92     0.160 C 
ENDROOT
BRANCH   6   7
ATOM      7  CB  GLU D 570     -19.500  -6.345 -13.794  1.00 32.92     0.043 C 
BRANCH   7   8
ATOM      8  CG  GLU D 570     -20.125  -7.656 -14.108  1.00 32.92     0.100 C 
BRANCH   8   9
ATOM      9  CD  GLU D 570     -20.723  -7.706 -15.495  1.00 32.92     0.185 C 
ATOM     10  OE1 GLU D 570     -21.321  -6.705 -15.933  1.00 32.92    -0.647 OA
ATOM     11  OE2 GLU D 570     -20.607  -8.765 -16.143  1.00 32.92    -0.647 OA
ENDBRANCH   8   9
ENDBRANCH   7   8
ENDBRANCH   6   7
END_RES GLU D 570
ENDMDL
MODEL 2
REMARK VINA RESULT:      -8.3      1.428      2.124
REMARK  10 active torsions:
REMARK  status: ('A' for Active; 'I' for Inactive)
REMARK    1  A    between atoms: O_2  and  C_3 
REMARK    2  A    between atoms: C_5  and  C_6 
REMARK    3  A    between atoms: C_6  and  N_7 
REMARK       I    between atoms: N_7  and  C_8 
REMARK    4  A    between atoms: C_8  and  C_10 
REMARK    5  A    between atoms: C_10  and  C_11 
REMARK    6  A    between atoms: C_11  and  C_12 
REMARK    7  A    between atoms: C_12  and  C_13 
REMARK    8  A    between atoms: C_13  and  C_14 
REMARK    9  A    between atoms: C_15  and  C_16 
REMARK   10  A    between atoms: C_21  and  O_22 
ROOT
HETATM    1  N   UNL     1     -20.440  -5.780  -7.611  1.00  0.00    -0.357 N 
HETATM    2  C   UNL     1     -20.561  -5.631  -6.255  1.00  0.00     0.217 C 
HETATM    3  O   UNL     1     -20.364  -4.559  -5.669  1.00  0.00    -0.274 OA
HETATM    4  H   UNL     1     -20.628  -6.690  -8.015  1.00  0.00     0.162 HD
ENDROOT
BRANCH   1   5
HETATM    5  C   UNL     1     -20.049  -4.677  -8.457  1.00  0.00     0.161 C 
BRANCH   5   6
HETATM    6  C   UNL     1     -20.954  -4.447  -9.648  1.00  0.00    -0.038 A 
HETATM    7  C   UNL     1     -22.353  -4.417  -9.528  1.00  0.00     0.048 A 
HETATM    8  C   UNL     1     -23.180  -4.169 -10.636  1.00  0.00     0.101 A 
HETATM    9  C   UNL     1     -22.589  -3.948 -11.882  1.00  0.00     0.099 A 
HETATM   10  C   UNL     1     -21.200  -3.960 -12.025  1.00  0.00     0.040 A 
HETATM   11  C   UNL     1     -20.393  -4.202 -10.907  1.00  0.00     0.012 A 
BRANCH   8  12
HETATM   12  O   UNL     1     -24.552  -4.135 -10.582  1.00  0.00    -0.353 OA
HETATM   13  C   UNL     1     -25.134  -3.230  -9.652  1.00  0.00     0.210 C 
ENDBRANCH   8  12
BRANCH   9  14
HETATM   14  O   UNL     1     -23.384  -3.719 -12.973  1.00  0.00    -0.358 OA
HETATM   15  H   UNL     1     -23.714  -2.809 -12.943  1.00  0.00     0.217 HD
ENDBRANCH   9  14
ENDBRANCH   5   6
ENDBRANCH   1   5
BRANCH   2  16
HETATM   16  C   UNL     1     -20.961  -6.901  -5.540  1.00  0.00     0.103 C 
BRANCH  16  17
HETATM   17  C   UNL     1     -21.925  -6.612  -4.394  1.00  0.00     0.010 C 
BRANCH  17  18
HETATM   18  C   UNL     1     -21.253  -6.748  -3.028  1.00  0.00     0.004 C 
BRANCH  18  19
HETATM   19  C   UNL     1     -22.111  -6.086  -1.949  1.00  0.00     0.027 C 
BRANCH  19  20
HETATM   20  C   UNL     1     -22.460  -7.055  -0.862  1.00  0.00    -0.030 C 
HETATM   21  C   UNL     1     -21.827  -8.228  -0.695  1.00  0.00    -0.027 C 
BRANCH  21  22
HETATM   22  C   UNL     1     -22.198  -9.221   0.377  1.00  0.00    -0.001 C 
HETATM   23  C   UNL     1     -23.352 -10.116  -0.078  1.00  0.00     0.013 C 
HETATM   24  C   UNL     1     -20.991 -10.076   0.760  1.00  0.00     0.013 C 
ENDBRANCH  21  22
ENDBRANCH  19  20
ENDBRANCH  18  19
ENDBRANCH  17  18
ENDBRANCH  16  17
ENDBRANCH   2  16
TORSDOF 10
BEGIN_RES THR D 550
REMARK  2 active torsions:
REMARK  status: ('A' for Active; 'I' for Inactive)
REMARK    1  A    between atoms: CA   and  CB  
REMARK    2  A    between atoms: CB   and  OG1 
ROOT
ATOM      1  CA  THR D 550     -23.815  -1.422  -4.360  1.00 30.31     0.186 C 
ENDROOT
BRANCH   1   2
ATOM      2  CB  THR D 550     -23.034  -2.690  -4.115  1.00 30.31     0.140 C 
ATOM      3  CG2 THR D 550     -22.092  -2.490  -3.051  1.00 30.31     0.034 C 
BRANCH   2   4
ATOM      4  OG1 THR D 550     -23.933  -3.728  -3.748  1.00 30.31    -0.382 OA
ATOM      5  HG1 THR D 550     -24.133  -3.648  -2.948  1.00 30.31     0.210 HD
ENDBRANCH   2   4
ENDBRANCH   1   2
END_RES THR D 550
BEGIN_RES GLU D 570
REMARK  3 active torsions:
REMARK  status: ('A' for Active; 'I' for Inactive)
REMARK    3  A    between atoms: CA   and  CB  
REMARK    4  A    between atoms: CB   and  CG  
REMARK    5  A    between atoms: CG   and  CD  
ROOT
ATOM      6  CA  GLU D 570     -18.033  -6.348 -13.375  1.00 32.92     0.160 C 
ENDROOT
BRANCH   6   7
ATOM      7  CB  GLU D 570     -19.500  -6.345 -13.794  1.00 32.92     0.043 C 
BRANCH   7   8
ATOM      8  CG  GLU D 570     -19.796  -6.303 -15.249  1.00 32.92     0.100 C 
BRANCH   8   9
ATOM      9  CD  GLU D 570     -21.167  -5.745 -15.556  1.00 32.92     0.185 C 
ATOM     10  OE1 GLU D 570     -21.334  -5.092 -16.604  1.00 32.92    -0.647 OA
ATOM     11  OE2 GLU D 570     -22.079  -5.950 -14.731  1.00 32.92    -0.647 OA
ENDBRANCH   8   9
ENDBRANCH   7   8
ENDBRANCH   6   7
END_RES GLU D 570
ENDMDL
MODEL 3
REMARK VINA RESULT:      -8.0      3.337     10.253
REMARK  10 active torsions:
REMARK  status: ('A' for Active; 'I' for Inactive)
REMARK    1  A    between atoms: O_2  and  C_3 
REMARK    2  A    between atoms: C_5  and  C_6 
REMARK    3  A    between atoms: C_6  and  N_7 
REMARK       I    between atoms: N_7  and  C_8 
REMARK    4  A    between atoms: C_8  and  C_10 
REMARK    5  A    between atoms: C_10  and  C_11 
REMARK    6  A    between atoms: C_11  and  C_12 
REMARK    7  A    between atoms: C_12  and  C_13 
REMARK    8  A    between atoms: C_13  and  C_14 
REMARK    9  A    between atoms: C_15  and  C_16 
REMARK   10  A    between atoms: C_21  and  O_22 
ROOT
HETATM    1  N   UNL     1     -22.046  -4.026 -13.096  1.00  0.00    -0.357 N 
HETATM    2  C   UNL     1     -23.003  -3.911 -14.069  1.00  0.00     0.217 C 
HETATM    3  O   UNL     1     -23.774  -2.947 -14.153  1.00  0.00    -0.274 OA
HETATM    4  H   UNL     1     -21.447  -4.844 -13.103  1.00  0.00     0.162 HD
ENDROOT
BRANCH   1   5
HETATM    5  C   UNL     1     -21.886  -3.017 -12.076  1.00  0.00     0.161 C 
BRANCH   5   6
HETATM    6  C   UNL     1     -22.407  -3.413 -10.712  1.00  0.00    -0.038 A 
HETATM    7  C   UNL     1     -21.549  -3.805  -9.670  1.00  0.00     0.048 A 
HETATM    8  C   UNL     1     -22.044  -4.138  -8.398  1.00  0.00     0.101 A 
HETATM    9  C   UNL     1     -23.421  -4.075  -8.173  1.00  0.00     0.099 A 
HETATM   10  C   UNL     1     -24.293  -3.677  -9.188  1.00  0.00     0.040 A 
HETATM   11  C   UNL     1     -23.780  -3.342 -10.447  1.00  0.00     0.012 A 
BRANCH   8  12
HETATM   12  O   UNL     1     -21.257  -4.533  -7.344  1.00  0.00    -0.353 OA
HETATM   13  C   UNL     1     -19.853  -4.563  -7.569  1.00  0.00     0.210 C 
ENDBRANCH   8  12
BRANCH   9  14
HETATM   14  O   UNL     1     -23.917  -4.410  -6.941  1.00  0.00    -0.358 OA
HETATM   15  H   UNL     1     -23.630  -3.753  -6.290  1.00  0.00     0.217 HD
ENDBRANCH   9  14
ENDBRANCH   5   6
ENDBRANCH   1   5
BRANCH   2  16
HETATM   16  C   UNL     1     -23.027  -5.074 -15.035  1.00  0.00     0.103 C 
BRANCH  16  17
HETATM   17  C   UNL     1     -23.836  -6.240 -14.476  1.00  0.00     0.010 C 
BRANCH  17  18
HETATM   18  C   UNL     1     -24.799  -6.821 -15.511  1.00  0.00     0.004 C 
BRANCH  18  19
HETATM   19  C   UNL     1     -24.031  -7.273 -16.753  1.00  0.00     0.027 C 
BRANCH  19  20
HETATM   20  C   UNL     1     -24.712  -6.821 -18.008  1.00  0.00    -0.030 C 
HETATM   21  C   UNL     1     -24.389  -7.285 -19.225  1.00  0.00    -0.027 C 
BRANCH  21  22
HETATM   22  C   UNL     1     -25.049  -6.807 -20.493  1.00  0.00    -0.001 C 
HETATM   23  C   UNL     1     -24.653  -7.684 -21.683  1.00  0.00     0.013 C 
HETATM   24  C   UNL     1     -26.569  -6.791 -20.338  1.00  0.00     0.013 C 
ENDBRANCH  21  22
ENDBRANCH  19  20
ENDBRANCH  18  19
ENDBRANCH  17  18
ENDBRANCH  16  17
ENDBRANCH   2  16
TORSDOF 10
BEGIN_RES THR D 550
REMARK  2 active torsions:
REMARK  status: ('A' for Active; 'I' for Inactive)
REMARK    1  A    between atoms: CA   and  CB  
REMARK    2  A    between atoms: CB   and  OG1 
ROOT
ATOM      1  CA  THR D 550     -23.815  -1.422  -4.360  1.00 30.31     0.186 C 
ENDROOT
BRANCH   1   2
ATOM      2  CB  THR D 550     -23.034  -2.690  -4.115  1.00 30.31     0.140 C 
ATOM      3  CG2 THR D 550     -22.143  -2.513  -3.004  1.00 30.31     0.034 C 
BRANCH   2   4
ATOM      4  OG1 THR D 550     -23.939  -3.745  -3.820  1.00 30.31    -0.382 OA
ATOM      5  HG1 THR D 550     -23.650  -4.183  -3.177  1.00 30.31     0.210 HD
ENDBRANCH   2   4
ENDBRANCH   1   2
END_RES THR D 550
BEGIN_RES GLU D 570
REMARK  3 active torsions:
REMARK  status: ('A' for Active; 'I' for Inactive)
REMARK    3  A    between atoms: CA   and  CB  
REMARK    4  A    between atoms: CB   and  CG  
REMARK    5  A    between atoms: CG   and  CD  
ROOT
ATOM      6  CA  GLU D 570     -18.033  -6.348 -13.375  1.00 32.92     0.160 C 
ENDROOT
BRANCH   6   7
ATOM      7  CB  GLU D 570     -19.500  -6.345 -13.794  1.00 32.92     0.043 C 
BRANCH   7   8
ATOM      8  CG  GLU D 570     -20.094  -7.640 -14.215  1.00 32.92     0.100 C 
BRANCH   8   9
ATOM      9  CD  GLU D 570     -20.469  -7.669 -15.678  1.00 32.92     0.185 C 
ATOM     10  OE1 GLU D 570     -20.774  -8.757 -16.203  1.00 32.92    -0.647 OA
ATOM     11  OE2 GLU D 570     -20.440  -6.595 -16.310  1.00 32.92    -0.647 OA
ENDBRANCH   8   9
ENDBRANCH   7   8
ENDBRANCH   6   7
END_RES GLU D 570
ENDMDL
MODEL 4
REMARK VINA RESULT:      -7.9      1.809      2.822
REMARK  10 active torsions:
REMARK  status: ('A' for Active; 'I' for Inactive)
REMARK    1  A    between atoms: O_2  and  C_3 
REMARK    2  A    between atoms: C_5  and  C_6 
REMARK    3  A    between atoms: C_6  and  N_7 
REMARK       I    between atoms: N_7  and  C_8 
REMARK    4  A    between atoms: C_8  and  C_10 
REMARK    5  A    between atoms: C_10  and  C_11 
REMARK    6  A    between atoms: C_11  and  C_12 
REMARK    7  A    between atoms: C_12  and  C_13 
REMARK    8  A    between atoms: C_13  and  C_14 
REMARK    9  A    between atoms: C_15  and  C_16 
REMARK   10  A    between atoms: C_21  and  O_22 
ROOT
HETATM    1  N   UNL     1     -20.613  -5.725  -6.082  1.00  0.00    -0.357 N 
HETATM    2  C   UNL     1     -21.551  -6.463  -5.410  1.00  0.00     0.217 C 
HETATM    3  O   UNL     1     -22.695  -6.056  -5.174  1.00  0.00    -0.274 OA
HETATM    4  H   UNL     1     -19.701  -6.135  -6.243  1.00  0.00     0.162 HD
ENDROOT
BRANCH   1   5
HETATM    5  C   UNL     1     -20.902  -4.390  -6.550  1.00  0.00     0.161 C 
BRANCH   5   6
HETATM    6  C   UNL     1     -21.088  -4.276  -8.048  1.00  0.00    -0.038 A 
HETATM    7  C   UNL     1     -22.299  -3.850  -8.620  1.00  0.00     0.048 A 
HETATM    8  C   UNL     1     -22.447  -3.716 -10.010  1.00  0.00     0.101 A 
HETATM    9  C   UNL     1     -21.360  -4.014 -10.835  1.00  0.00     0.099 A 
HETATM   10  C   UNL     1     -20.142  -4.427 -10.290  1.00  0.00     0.040 A 
HETATM   11  C   UNL     1     -20.013  -4.548  -8.902  1.00  0.00     0.012 A 
BRANCH   8  12
HETATM   12  O   UNL     1     -23.606  -3.311 -10.626  1.00  0.00    -0.353 OA
HETATM   13  C   UNL     1     -24.789  -3.327  -9.839  1.00  0.00     0.210 C 
ENDBRANCH   8  12
BRANCH   9  14
HETATM   14  O   UNL     1     -21.496  -3.901 -12.194  1.00  0.00    -0.358 OA
HETATM   15  H   UNL     1     -21.094  -3.069 -12.487  1.00  0.00     0.217 HD
ENDBRANCH   9  14
ENDBRANCH   5   6
ENDBRANCH   1   5
BRANCH   2  16
HETATM   16  C   UNL     1     -21.056  -7.827  -4.985  1.00  0.00     0.103 C 
BRANCH  16  17
HETATM   17  C   UNL     1     -21.608  -8.215  -3.618  1.00  0.00     0.010 C 
BRANCH  17  18
HETATM   18  C   UNL     1     -21.045  -7.340  -2.499  1.00  0.00     0.004 C 
BRANCH  18  19
HETATM   19  C   UNL     1     -21.122  -8.076  -1.162  1.00  0.00     0.027 C 
BRANCH  19  20
HETATM   20  C   UNL     1     -21.995  -9.290  -1.260  1.00  0.00    -0.030 C 
HETATM   21  C   UNL     1     -22.897  -9.621  -0.322  1.00  0.00    -0.027 C 
BRANCH  21  22
HETATM   22  C   UNL     1     -23.753 -10.859  -0.401  1.00  0.00    -0.001 C 
HETATM   23  C   UNL     1     -23.776 -11.421  -1.824  1.00  0.00     0.013 C 
HETATM   24  C   UNL     1     -23.251 -11.924   0.573  1.00  0.00     0.013 C 
ENDBRANCH  21  22
ENDBRANCH  19  20
ENDBRANCH  18  19
ENDBRANCH  17  18
ENDBRANCH  16  17
ENDBRANCH   2  16
TORSDOF 10
BEGIN_RES THR D 550
REMARK  2 active torsions:
REMARK  status: ('A' for Active; 'I' for Inactive)
REMARK    1  A    between atoms: CA   and  CB  
REMARK    2  A    between atoms: CB   and  OG1 
ROOT
ATOM      1  CA  THR D 550     -23.815  -1.422  -4.360  1.00 30.31     0.186 C 
ENDROOT
BRANCH   1   2
ATOM      2  CB  THR D 550     -23.034  -2.690  -4.115  1.00 30.31     0.140 C 
ATOM      3  CG2 THR D 550     -22.091  -2.490  -3.052  1.00 30.31     0.034 C 
BRANCH   2   4
ATOM      4  OG1 THR D 550     -23.933  -3.728  -3.747  1.00 30.31    -0.382 OA
ATOM      5  HG1 THR D 550     -24.225  -3.581  -2.985  1.00 30.31     0.210 HD
ENDBRANCH   2   4
ENDBRANCH   1   2
END_RES THR D 550
BEGIN_RES GLU D 570
REMARK  3 active torsions:
REMARK  status: ('A' for Active; 'I' for Inactive)
REMARK    3  A    between atoms: CA   and  CB  
REMARK    4  A    between atoms: CB   and  CG  
REMARK    5  A    between atoms: CG   and  CD  
ROOT
ATOM      6  CA  GLU D 570     -18.033  -6.348 -13.375  1.00 32.92     0.160 C 
ENDROOT
BRANCH   6   7
ATOM      7  CB  GLU D 570     -19.500  -6.345 -13.794  1.00 32.92     0.043 C 
BRANCH   7   8
ATOM      8  CG  GLU D 570     -19.809  -5.985 -15.202  1.00 32.92     0.100 C 
BRANCH   8   9
ATOM      9  CD  GLU D 570     -21.228  -5.500 -15.389  1.00 32.92     0.185 C 
ATOM     10  OE1 GLU D 570     -21.529  -4.901 -16.439  1.00 32.92    -0.647 OA
ATOM     11  OE2 GLU D 570     -22.042  -5.707 -14.468  1.00 32.92    -0.647 OA
ENDBRANCH   8   9
ENDBRANCH   7   8
ENDBRANCH   6   7
END_RES GLU D 570
ENDMDL
MODEL 5
REMARK VINA RESULT:      -7.9      4.188      9.990
REMARK  10 active torsions:
REMARK  status: ('A' for Active; 'I' for Inactive)
REMARK    1  A    between atoms: O_2  and  C_3 
REMARK    2  A    between atoms: C_5  and  C_6 
REMARK    3  A    between atoms: C_6  and  N_7 
REMARK       I    between atoms: N_7  and  C_8 
REMARK    4  A    between atoms: C_8  and  C_10 
REMARK    5  A    between atoms: C_10  and  C_11 
REMARK    6  A    between atoms: C_11  and  C_12 
REMARK    7  A    between atoms: C_12  and  C_13 
REMARK    8  A    between atoms: C_13  and  C_14 
REMARK    9  A    between atoms: C_15  and  C_16 
REMARK   10  A    between atoms: C_21  and  O_22 
ROOT
HETATM    1  N   UNL     1     -22.886  -5.543 -13.265  1.00  0.00    -0.357 N 
HETATM    2  C   UNL     1     -23.728  -5.366 -14.329  1.00  0.00     0.217 C 
HETATM    3  O   UNL     1     -24.032  -4.254 -14.779  1.00  0.00    -0.274 OA
HETATM    4  H   UNL     1     -22.680  -6.489 -12.964  1.00  0.00     0.162 HD
ENDROOT
BRANCH   1   5
HETATM    5  C   UNL     1     -22.300  -4.418 -12.574  1.00  0.00     0.161 C 
BRANCH   5   6
HETATM    6  C   UNL     1     -22.640  -4.338 -11.102  1.00  0.00    -0.038 A 
HETATM    7  C   UNL     1     -21.663  -4.084 -10.124  1.00  0.00     0.048 A 
HETATM    8  C   UNL     1     -21.997  -3.979  -8.763  1.00  0.00     0.101 A 
HETATM    9  C   UNL     1     -23.333  -4.130  -8.384  1.00  0.00     0.099 A 
HETATM   10  C   UNL     1     -24.323  -4.369  -9.338  1.00  0.00     0.040 A 
HETATM   11  C   UNL     1     -23.971  -4.465 -10.689  1.00  0.00     0.012 A 
BRANCH   8  12
HETATM   12  O   UNL     1     -21.087  -3.739  -7.763  1.00  0.00    -0.353 OA
HETATM   13  C   UNL     1     -19.860  -4.454  -7.829  1.00  0.00     0.210 C 
ENDBRANCH   8  12
BRANCH   9  14
HETATM   14  O   UNL     1     -23.670  -4.042  -7.059  1.00  0.00    -0.358 OA
HETATM   15  H   UNL     1     -23.203  -4.732  -6.564  1.00  0.00     0.217 HD
ENDBRANCH   9  14
ENDBRANCH   5   6
ENDBRANCH   1   5
BRANCH   2  16
HETATM   16  C   UNL     1     -24.253  -6.661 -14.908  1.00  0.00     0.103 C 
BRANCH  16  17
HETATM   17  C   UNL     1     -24.289  -6.613 -16.431  1.00  0.00     0.010 C 
BRANCH  17  18
HETATM   18  C   UNL     1     -25.717  -6.570 -16.973  1.00  0.00     0.004 C 
BRANCH  18  19
HETATM   19  C   UNL     1     -26.718  -6.812 -15.844  1.00  0.00     0.027 C 
BRANCH  19  20
HETATM   20  C   UNL     1     -28.125  -6.828 -16.359  1.00  0.00    -0.030 C 
HETATM   21  C   UNL     1     -28.462  -6.392 -17.584  1.00  0.00    -0.027 C 
BRANCH  21  22
HETATM   22  C   UNL     1     -29.881  -6.376 -18.093  1.00  0.00    -0.001 C 
HETATM   23  C   UNL     1     -30.339  -7.781 -18.486  1.00  0.00     0.013 C 
HETATM   24  C   UNL     1     -30.824  -5.793 -17.042  1.00  0.00     0.013 C 
ENDBRANCH  21  22
ENDBRANCH  19  20
ENDBRANCH  18  19
ENDBRANCH  17  18
ENDBRANCH  16  17
ENDBRANCH   2  16
TORSDOF 10
BEGIN_RES THR D 550
REMARK  2 active torsions:
REMARK  status: ('A' for Active; 'I' for Inactive)
REMARK    1  A    between atoms: CA   and  CB  
REMARK    2  A    between atoms: CB   and  OG1 
ROOT
ATOM      1  CA  THR D 550     -23.815  -1.422  -4.360  1.00 30.31     0.186 C 
ENDROOT
BRANCH   1   2
ATOM      2  CB  THR D 550     -23.034  -2.690  -4.115  1.00 30.31     0.140 C 
ATOM      3  CG2 THR D 550     -22.128  -2.506  -3.018  1.00 30.31     0.034 C 
BRANCH   2   4
ATOM      4  OG1 THR D 550     -23.937  -3.740  -3.798  1.00 30.31    -0.382 OA
ATOM      5  HG1 THR D 550     -24.129  -4.156  -4.490  1.00 30.31     0.210 HD
ENDBRANCH   2   4
ENDBRANCH   1   2
END_RES THR D 550
BEGIN_RES GLU D 570
REMARK  3 active torsions:
REMARK  status: ('A' for Active; 'I' for Inactive)
REMARK    3  A    between atoms: CA   and  CB  
REMARK    4  A    between atoms: CB   and  CG  
REMARK    5  A    between atoms: CG   and  CD  
ROOT
ATOM      6  CA  GLU D 570     -18.033  -6.348 -13.375  1.00 32.92     0.160 C 
ENDROOT
BRANCH   6   7
ATOM      7  CB  GLU D 570     -19.500  -6.345 -13.794  1.00 32.92     0.043 C 
BRANCH   7   8
ATOM      8  CG  GLU D 570     -20.080  -7.629 -14.264  1.00 32.92     0.100 C 
BRANCH   8   9
ATOM      9  CD  GLU D 570     -20.706  -7.526 -15.636  1.00 32.92     0.185 C 
ATOM     10  OE1 GLU D 570     -20.675  -6.434 -16.235  1.00 32.92    -0.647 OA
ATOM     11  OE2 GLU D 570     -21.248  -8.544 -16.109  1.00 32.92    -0.647 OA
ENDBRANCH   8   9
ENDBRANCH   7   8
ENDBRANCH   6   7
END_RES GLU D 570
ENDMDL
MODEL 6
REMARK VINA RESULT:      -7.8      3.941      7.498
REMARK  10 active torsions:
REMARK  status: ('A' for Active; 'I' for Inactive)
REMARK    1  A    between atoms: O_2  and  C_3 
REMARK    2  A    between atoms: C_5  and  C_6 
REMARK    3  A    between atoms: C_6  and  N_7 
REMARK       I    between atoms: N_7  and  C_8 
REMARK    4  A    between atoms: C_8  and  C_10 
REMARK    5  A    between atoms: C_10  and  C_11 
REMARK    6  A    between atoms: C_11  and  C_12 
REMARK    7  A    between atoms: C_12  and  C_13 
REMARK    8  A    between atoms: C_13  and  C_14 
REMARK    9  A    between atoms: C_15  and  C_16 
REMARK   10  A    between atoms: C_21  and  O_22 
ROOT
HETATM    1  N   UNL     1     -23.585  -5.636 -14.925  1.00  0.00    -0.357 N 
HETATM    2  C   UNL     1     -23.308  -5.287 -13.630  1.00  0.00     0.217 C 
HETATM    3  O   UNL     1     -23.772  -5.885 -12.651  1.00  0.00    -0.274 OA
HETATM    4  H   UNL     1     -23.157  -5.100 -15.671  1.00  0.00     0.162 HD
ENDROOT
BRANCH   1   5
HETATM    5  C   UNL     1     -24.468  -6.736 -15.235  1.00  0.00     0.161 C 
BRANCH   5   6
HETATM    6  C   UNL     1     -25.021  -6.720 -16.643  1.00  0.00    -0.038 A 
HETATM    7  C   UNL     1     -26.328  -6.291 -16.927  1.00  0.00     0.048 A 
HETATM    8  C   UNL     1     -26.818  -6.249 -18.242  1.00  0.00     0.101 A 
HETATM    9  C   UNL     1     -25.979  -6.646 -19.287  1.00  0.00     0.099 A 
HETATM   10  C   UNL     1     -24.672  -7.065 -19.032  1.00  0.00     0.040 A 
HETATM   11  C   UNL     1     -24.200  -7.093 -17.714  1.00  0.00     0.012 A 
BRANCH   8  12
HETATM   12  O   UNL     1     -28.087  -5.845 -18.580  1.00  0.00    -0.353 OA
HETATM   13  C   UNL     1     -29.165  -6.577 -18.011  1.00  0.00     0.210 C 
ENDBRANCH   8  12
BRANCH   9  14
HETATM   14  O   UNL     1     -26.450  -6.623 -20.573  1.00  0.00    -0.358 OA
HETATM   15  H   UNL     1     -25.819  -6.149 -21.136  1.00  0.00     0.217 HD
ENDBRANCH   9  14
ENDBRANCH   5   6
ENDBRANCH   1   5
BRANCH   2  16
HETATM   16  C   UNL     1     -22.379  -4.101 -13.508  1.00  0.00     0.103 C 
BRANCH  16  17
HETATM   17  C   UNL     1     -22.921  -3.071 -12.523  1.00  0.00     0.010 C 
BRANCH  17  18
HETATM   18  C   UNL     1     -22.180  -3.106 -11.186  1.00  0.00     0.004 C 
BRANCH  18  19
HETATM   19  C   UNL     1     -20.912  -3.950 -11.307  1.00  0.00     0.027 C 
BRANCH  19  20
HETATM   20  C   UNL     1     -20.398  -4.355  -9.960  1.00  0.00    -0.030 C 
HETATM   21  C   UNL     1     -21.104  -4.198  -8.829  1.00  0.00    -0.027 C 
BRANCH  21  22
HETATM   22  C   UNL     1     -20.577  -4.573  -7.467  1.00  0.00    -0.001 C 
HETATM   23  C   UNL     1     -21.035  -5.978  -7.069  1.00  0.00     0.013 C 
HETATM   24  C   UNL     1     -19.052  -4.492  -7.438  1.00  0.00     0.013 C 
ENDBRANCH  21  22
ENDBRANCH  19  20
ENDBRANCH  18  19
ENDBRANCH  17  18
ENDBRANCH  16  17
ENDBRANCH   2  16
TORSDOF 10
BEGIN_RES THR D 550
REMARK  2 active torsions:
REMARK  status: ('A' for Active; 'I' for Inactive)
REMARK    1  A    between atoms: CA   and  CB  
REMARK    2  A    between atoms: CB   and  OG1 
ROOT
ATOM      1  CA  THR D 550     -23.815  -1.422  -4.360  1.00 30.31     0.186 C 
ENDROOT
BRANCH   1   2
ATOM      2  CB  THR D 550     -23.034  -2.690  -4.115  1.00 30.31     0.140 C 
ATOM      3  CG2 THR D 550     -22.083  -2.486  -3.060  1.00 30.31     0.034 C 
BRANCH   2   4
ATOM      4  OG1 THR D 550     -23.931  -3.724  -3.736  1.00 30.31    -0.382 OA
ATOM      5  HG1 THR D 550     -24.635  -3.388  -3.453  1.00 30.31     0.210 HD
ENDBRANCH   2   4
ENDBRANCH   1   2
END_RES THR D 550
BEGIN_RES GLU D 570
REMARK  3 active torsions:
REMARK  status: ('A' for Active; 'I' for Inactive)
REMARK    3  A    between atoms: CA   and  CB  
REMARK    4  A    between atoms: CB   and  CG  
REMARK    5  A    between atoms: CG   and  CD  
ROOT
ATOM      6  CA  GLU D 570     -18.033  -6.348 -13.375  1.00 32.92     0.160 C 
ENDROOT
BRANCH   6   7
ATOM      7  CB  GLU D 570     -19.500  -6.345 -13.794  1.00 32.92     0.043 C 
BRANCH   7   8
ATOM      8  CG  GLU D 570     -20.090  -7.637 -14.231  1.00 32.92     0.100 C 
BRANCH   8   9
ATOM      9  CD  GLU D 570     -20.747  -7.555 -15.589  1.00 32.92     0.185 C 
ATOM     10  OE1 GLU D 570     -21.125  -8.606 -16.142  1.00 32.92    -0.647 OA
ATOM     11  OE2 GLU D 570     -20.871  -6.430 -16.112  1.00 32.92    -0.647 OA
ENDBRANCH   8   9
ENDBRANCH   7   8
ENDBRANCH   6   7
END_RES GLU D 570
ENDMDL
MODEL 7
REMARK VINA RESULT:      -7.5      2.108      8.968
REMARK  10 active torsions:
REMARK  status: ('A' for Active; 'I' for Inactive)
REMARK    1  A    between atoms: O_2  and  C_3 
REMARK    2  A    between atoms: C_5  and  C_6 
REMARK    3  A    between atoms: C_6  and  N_7 
REMARK       I    between atoms: N_7  and  C_8 
REMARK    4  A    between atoms: C_8  and  C_10 
REMARK    5  A    between atoms: C_10  and  C_11 
REMARK    6  A    between atoms: C_11  and  C_12 
REMARK    7  A    between atoms: C_12  and  C_13 
REMARK    8  A    between atoms: C_13  and  C_14 
REMARK    9  A    between atoms: C_15  and  C_16 
REMARK   10  A    between atoms: C_21  and  O_22 
ROOT
HETATM    1  N   UNL     1     -20.833  -7.136  -5.900  1.00  0.00    -0.357 N 
HETATM    2  C   UNL     1     -20.644  -5.856  -6.345  1.00  0.00     0.217 C 
HETATM    3  O   UNL     1     -19.874  -5.054  -5.802  1.00  0.00    -0.274 OA
HETATM    4  H   UNL     1     -21.476  -7.734  -6.407  1.00  0.00     0.162 HD
ENDROOT
BRANCH   1   5
HETATM    5  C   UNL     1     -20.144  -7.637  -4.734  1.00  0.00     0.161 C 
BRANCH   5   6
HETATM    6  C   UNL     1     -20.945  -7.567  -3.451  1.00  0.00    -0.038 A 
HETATM    7  C   UNL     1     -21.157  -8.696  -2.642  1.00  0.00     0.048 A 
HETATM    8  C   UNL     1     -21.874  -8.611  -1.437  1.00  0.00     0.101 A 
HETATM    9  C   UNL     1     -22.383  -7.371  -1.042  1.00  0.00     0.099 A 
HETATM   10  C   UNL     1     -22.174  -6.233  -1.823  1.00  0.00     0.040 A 
HETATM   11  C   UNL     1     -21.452  -6.337  -3.017  1.00  0.00     0.012 A 
BRANCH   8  12
HETATM   12  O   UNL     1     -22.119  -9.679  -0.609  1.00  0.00    -0.353 OA
HETATM   13  C   UNL     1     -20.996 -10.246   0.054  1.00  0.00     0.210 C 
ENDBRANCH   8  12
BRANCH   9  14
HETATM   14  O   UNL     1     -23.095  -7.277   0.124  1.00  0.00    -0.358 OA
HETATM   15  H   UNL     1     -22.590  -7.688   0.842  1.00  0.00     0.217 HD
ENDBRANCH   9  14
ENDBRANCH   5   6
ENDBRANCH   1   5
BRANCH   2  16
HETATM   16  C   UNL     1     -21.466  -5.512  -7.567  1.00  0.00     0.103 C 
BRANCH  16  17
HETATM   17  C   UNL     1     -21.127  -4.119  -8.088  1.00  0.00     0.010 C 
BRANCH  17  18
HETATM   18  C   UNL     1     -19.906  -4.129  -9.007  1.00  0.00     0.004 C 
BRANCH  18  19
HETATM   19  C   UNL     1     -20.322  -4.477 -10.435  1.00  0.00     0.027 C 
BRANCH  19  20
HETATM   20  C   UNL     1     -21.629  -3.837 -10.792  1.00  0.00    -0.030 C 
HETATM   21  C   UNL     1     -21.852  -3.236 -11.972  1.00  0.00    -0.027 C 
BRANCH  21  22
HETATM   22  C   UNL     1     -23.154  -2.561 -12.321  1.00  0.00    -0.001 C 
HETATM   23  C   UNL     1     -23.376  -2.547 -13.835  1.00  0.00     0.013 C 
HETATM   24  C   UNL     1     -24.324  -3.255 -11.627  1.00  0.00     0.013 C 
ENDBRANCH  21  22
ENDBRANCH  19  20
ENDBRANCH  18  19
ENDBRANCH  17  18
ENDBRANCH  16  17
ENDBRANCH   2  16
TORSDOF 10
BEGIN_RES THR D 550
REMARK  2 active torsions:
REMARK  status: ('A' for Active; 'I' for Inactive)
REMARK    1  A    between atoms: CA   and  CB  
REMARK    2  A    between atoms: CB   and  OG1 
ROOT
ATOM      1  CA  THR D 550     -23.815  -1.422  -4.360  1.00 30.31     0.186 C 
ENDROOT
BRANCH   1   2
ATOM      2  CB  THR D 550     -23.034  -2.690  -4.115  1.00 30.31     0.140 C 
ATOM      3  CG2 THR D 550     -22.080  -2.485  -3.063  1.00 30.31     0.034 C 
BRANCH   2   4
ATOM      4  OG1 THR D 550     -23.931  -3.724  -3.732  1.00 30.31    -0.382 OA
ATOM      5  HG1 THR D 550     -24.558  -3.397  -3.299  1.00 30.31     0.210 HD
ENDBRANCH   2   4
ENDBRANCH   1   2
END_RES THR D 550
BEGIN_RES GLU D 570
REMARK  3 active torsions:
REMARK  status: ('A' for Active; 'I' for Inactive)
REMARK    3  A    between atoms: CA   and  CB  
REMARK    4  A    between atoms: CB   and  CG  
REMARK    5  A    between atoms: CG   and  CD  
ROOT
ATOM      6  CA  GLU D 570     -18.033  -6.348 -13.375  1.00 32.92     0.160 C 
ENDROOT
BRANCH   6   7
ATOM      7  CB  GLU D 570     -19.500  -6.345 -13.794  1.00 32.92     0.043 C 
BRANCH   7   8
ATOM      8  CG  GLU D 570     -20.087  -7.635 -14.239  1.00 32.92     0.100 C 
BRANCH   8   9
ATOM      9  CD  GLU D 570     -20.674  -7.567 -15.630  1.00 32.92     0.185 C 
ATOM     10  OE1 GLU D 570     -20.615  -6.493 -16.259  1.00 32.92    -0.647 OA
ATOM     11  OE2 GLU D 570     -21.212  -8.594 -16.089  1.00 32.92    -0.647 OA
ENDBRANCH   8   9
ENDBRANCH   7   8
ENDBRANCH   6   7
END_RES GLU D 570
ENDMDL
MODEL 8
REMARK VINA RESULT:      -7.2     10.680     13.531
REMARK  10 active torsions:
REMARK  status: ('A' for Active; 'I' for Inactive)
REMARK    1  A    between atoms: O_2  and  C_3 
REMARK    2  A    between atoms: C_5  and  C_6 
REMARK    3  A    between atoms: C_6  and  N_7 
REMARK       I    between atoms: N_7  and  C_8 
REMARK    4  A    between atoms: C_8  and  C_10 
REMARK    5  A    between atoms: C_10  and  C_11 
REMARK    6  A    between atoms: C_11  and  C_12 
REMARK    7  A    between atoms: C_12  and  C_13 
REMARK    8  A    between atoms: C_13  and  C_14 
REMARK    9  A    between atoms: C_15  and  C_16 
REMARK   10  A    between atoms: C_21  and  O_22 
ROOT
HETATM    1  N   UNL     1     -35.407  -0.663 -11.187  1.00  0.00    -0.357 N 
HETATM    2  C   UNL     1     -35.562  -1.912 -10.646  1.00  0.00     0.217 C 
HETATM    3  O   UNL     1     -36.636  -2.527 -10.654  1.00  0.00    -0.274 OA
HETATM    4  H   UNL     1     -34.491  -0.232 -11.148  1.00  0.00     0.162 HD
ENDROOT
BRANCH   1   5
HETATM    5  C   UNL     1     -36.514   0.035 -11.798  1.00  0.00     0.161 C 
BRANCH   5   6
HETATM    6  C   UNL     1     -36.631  -0.160 -13.294  1.00  0.00    -0.038 A 
HETATM    7  C   UNL     1     -35.544  -0.578 -14.080  1.00  0.00     0.048 A 
HETATM    8  C   UNL     1     -35.676  -0.788 -15.463  1.00  0.00     0.101 A 
HETATM    9  C   UNL     1     -36.919  -0.574 -16.061  1.00  0.00     0.099 A 
HETATM   10  C   UNL     1     -38.018  -0.170 -15.300  1.00  0.00     0.040 A 
HETATM   11  C   UNL     1     -37.868   0.027 -13.922  1.00  0.00     0.012 A 
BRANCH   8  12
HETATM   12  O   UNL     1     -34.650  -1.190 -16.282  1.00  0.00    -0.353 OA
HETATM   13  C   UNL     1     -34.579  -2.576 -16.589  1.00  0.00     0.210 C 
ENDBRANCH   8  12
BRANCH   9  14
HETATM   14  O   UNL     1     -37.058  -0.762 -17.411  1.00  0.00    -0.358 OA
HETATM   15  H   UNL     1     -36.188  -0.932 -17.802  1.00  0.00     0.217 HD
ENDBRANCH   9  14
ENDBRANCH   5   6
ENDBRANCH   1   5
BRANCH   2  16
HETATM   16  C   UNL     1     -34.296  -2.470 -10.039  1.00  0.00     0.103 C 
BRANCH  16  17
HETATM   17  C   UNL     1     -33.109  -2.303 -10.981  1.00  0.00     0.010 C 
BRANCH  17  18
HETATM   18  C   UNL     1     -32.720  -3.617 -11.658  1.00  0.00     0.004 C 
BRANCH  18  19
HETATM   19  C   UNL     1     -33.863  -4.114 -12.543  1.00  0.00     0.027 C 
BRANCH  19  20
HETATM   20  C   UNL     1     -34.519  -5.325 -11.954  1.00  0.00    -0.030 C 
HETATM   21  C   UNL     1     -33.893  -6.161 -11.110  1.00  0.00    -0.027 C 
BRANCH  21  22
HETATM   22  C   UNL     1     -34.539  -7.399 -10.542  1.00  0.00    -0.001 C 
HETATM   23  C   UNL     1     -33.484  -8.424 -10.122  1.00  0.00     0.013 C 
HETATM   24  C   UNL     1     -35.429  -7.045  -9.353  1.00  0.00     0.013 C 
ENDBRANCH  21  22
ENDBRANCH  19  20
ENDBRANCH  18  19
ENDBRANCH  17  18
ENDBRANCH  16  17
ENDBRANCH   2  16
TORSDOF 10
BEGIN_RES THR D 550
REMARK  2 active torsions:
REMARK  status: ('A' for Active; 'I' for Inactive)
REMARK    1  A    between atoms: CA   and  CB  
REMARK    2  A    between atoms: CB   and  OG1 
ROOT
ATOM      1  CA  THR D 550     -23.815  -1.422  -4.360  1.00 30.31     0.186 C 
ENDROOT
BRANCH   1   2
ATOM      2  CB  THR D 550     -23.034  -2.690  -4.115  1.00 30.31     0.140 C 
ATOM      3  CG2 THR D 550     -22.149  -2.944  -5.216  1.00 30.31     0.034 C 
BRANCH   2   4
ATOM      4  OG1 THR D 550     -22.266  -2.543  -2.928  1.00 30.31    -0.382 OA
ATOM      5  HG1 THR D 550     -22.276  -3.255  -2.504  1.00 30.31     0.210 HD
ENDBRANCH   2   4
ENDBRANCH   1   2
END_RES THR D 550
BEGIN_RES GLU D 570
REMARK  3 active torsions:
REMARK  status: ('A' for Active; 'I' for Inactive)
REMARK    3  A    between atoms: CA   and  CB  
REMARK    4  A    between atoms: CB   and  CG  
REMARK    5  A    between atoms: CG   and  CD  
ROOT
ATOM      6  CA  GLU D 570     -18.033  -6.348 -13.375  1.00 32.92     0.160 C 
ENDROOT
BRANCH   6   7
ATOM      7  CB  GLU D 570     -19.500  -6.345 -13.794  1.00 32.92     0.043 C 
BRANCH   7   8
ATOM      8  CG  GLU D 570     -20.438  -5.514 -12.996  1.00 32.92     0.100 C 
BRANCH   8   9
ATOM      9  CD  GLU D 570     -21.763  -5.291 -13.688  1.00 32.92     0.185 C 
ATOM     10  OE1 GLU D 570     -22.092  -6.047 -14.622  1.00 32.92    -0.647 OA
ATOM     11  OE2 GLU D 570     -22.471  -4.340 -13.303  1.00 32.92    -0.647 OA
ENDBRANCH   8   9
ENDBRANCH   7   8
ENDBRANCH   6   7
END_RES GLU D 570
ENDMDL
MODEL 9
REMARK VINA RESULT:      -7.1      2.598      3.597
REMARK  10 active torsions:
REMARK  status: ('A' for Active; 'I' for Inactive)
REMARK    1  A    between atoms: O_2  and  C_3 
REMARK    2  A    between atoms: C_5  and  C_6 
REMARK    3  A    between atoms: C_6  and  N_7 
REMARK       I    between atoms: N_7  and  C_8 
REMARK    4  A    between atoms: C_8  and  C_10 
REMARK    5  A    between atoms: C_10  and  C_11 
REMARK    6  A    between atoms: C_11  and  C_12 
REMARK    7  A    between atoms: C_12  and  C_13 
REMARK    8  A    between atoms: C_13  and  C_14 
REMARK    9  A    between atoms: C_15  and  C_16 
REMARK   10  A    between atoms: C_21  and  O_22 
ROOT
HETATM    1  N   UNL     1     -21.240  -5.700  -6.843  1.00  0.00    -0.357 N 
HETATM    2  C   UNL     1     -21.233  -5.805  -5.478  1.00  0.00     0.217 C 
HETATM    3  O   UNL     1     -20.556  -5.074  -4.743  1.00  0.00    -0.274 OA
HETATM    4  H   UNL     1     -21.830  -6.331  -7.372  1.00  0.00     0.162 HD
ENDROOT
BRANCH   1   5
HETATM    5  C   UNL     1     -20.429  -4.720  -7.526  1.00  0.00     0.161 C 
BRANCH   5   6
HETATM    6  C   UNL     1     -20.903  -4.372  -8.920  1.00  0.00    -0.038 A 
HETATM    7  C   UNL     1     -22.208  -3.919  -9.173  1.00  0.00     0.048 A 
HETATM    8  C   UNL     1     -22.625  -3.567 -10.467  1.00  0.00     0.101 A 
HETATM    9  C   UNL     1     -21.715  -3.673 -11.521  1.00  0.00     0.099 A 
HETATM   10  C   UNL     1     -20.408  -4.109 -11.293  1.00  0.00     0.040 A 
HETATM   11  C   UNL     1     -20.010  -4.448  -9.995  1.00  0.00     0.012 A 
BRANCH   8  12
HETATM   12  O   UNL     1     -23.888  -3.124 -10.777  1.00  0.00    -0.353 OA
HETATM   13  C   UNL     1     -24.892  -3.308  -9.786  1.00  0.00     0.210 C 
ENDBRANCH   8  12
BRANCH   9  14
HETATM   14  O   UNL     1     -22.113  -3.346 -12.790  1.00  0.00    -0.358 OA
HETATM   15  H   UNL     1     -22.354  -4.153 -13.268  1.00  0.00     0.217 HD
ENDBRANCH   9  14
ENDBRANCH   5   6
ENDBRANCH   1   5
BRANCH   2  16
HETATM   16  C   UNL     1     -22.132  -6.900  -4.950  1.00  0.00     0.103 C 
BRANCH  16  17
HETATM   17  C   UNL     1     -21.345  -8.174  -4.665  1.00  0.00     0.010 C 
BRANCH  17  18
HETATM   18  C   UNL     1     -20.754  -8.183  -3.255  1.00  0.00     0.004 C 
BRANCH  18  19
HETATM   19  C   UNL     1     -20.352  -9.604  -2.859  1.00  0.00     0.027 C 
BRANCH  19  20
HETATM   20  C   UNL     1     -18.877  -9.704  -2.618  1.00  0.00    -0.030 C 
HETATM   21  C   UNL     1     -17.961  -9.412  -3.554  1.00  0.00    -0.027 C 
BRANCH  21  22
HETATM   22  C   UNL     1     -16.476  -9.544  -3.326  1.00  0.00    -0.001 C 
HETATM   23  C   UNL     1     -16.177 -10.601  -2.262  1.00  0.00     0.013 C 
HETATM   24  C   UNL     1     -15.760  -9.895  -4.629  1.00  0.00     0.013 C 
ENDBRANCH  21  22
ENDBRANCH  19  20
ENDBRANCH  18  19
ENDBRANCH  17  18
ENDBRANCH  16  17
ENDBRANCH   2  16
TORSDOF 10
BEGIN_RES THR D 550
REMARK  2 active torsions:
REMARK  status: ('A' for Active; 'I' for Inactive)
REMARK    1  A    between atoms: CA   and  CB  
REMARK    2  A    between atoms: CB   and  OG1 
ROOT
ATOM      1  CA  THR D 550     -23.815  -1.422  -4.360  1.00 30.31     0.186 C 
ENDROOT
BRANCH   1   2
ATOM      2  CB  THR D 550     -23.034  -2.690  -4.115  1.00 30.31     0.140 C 
ATOM      3  CG2 THR D 550     -22.090  -2.490  -3.053  1.00 30.31     0.034 C 
BRANCH   2   4
ATOM      4  OG1 THR D 550     -23.933  -3.727  -3.746  1.00 30.31    -0.382 OA
ATOM      5  HG1 THR D 550     -24.698  -3.415  -3.674  1.00 30.31     0.210 HD
ENDBRANCH   2   4
ENDBRANCH   1   2
END_RES THR D 550
BEGIN_RES GLU D 570
REMARK  3 active torsions:
REMARK  status: ('A' for Active; 'I' for Inactive)
REMARK    3  A    between atoms: CA   and  CB  
REMARK    4  A    between atoms: CB   and  CG  
REMARK    5  A    between atoms: CG   and  CD  
ROOT
ATOM      6  CA  GLU D 570     -18.033  -6.348 -13.375  1.00 32.92     0.160 C 
ENDROOT
BRANCH   6   7
ATOM      7  CB  GLU D 570     -19.500  -6.345 -13.794  1.00 32.92     0.043 C 
BRANCH   7   8
ATOM      8  CG  GLU D 570     -19.798  -6.463 -15.245  1.00 32.92     0.100 C 
BRANCH   8   9
ATOM      9  CD  GLU D 570     -20.929  -7.421 -15.538  1.00 32.92     0.185 C 
ATOM     10  OE1 GLU D 570     -22.101  -6.999 -15.515  1.00 32.92    -0.647 OA
ATOM     11  OE2 GLU D 570     -20.641  -8.610 -15.777  1.00 32.92    -0.647 OA
ENDBRANCH   8   9
ENDBRANCH   7   8
ENDBRANCH   6   7
END_RES GLU D 570
ENDMDL
