MODEL 1
REMARK VINA RESULT:      -9.3      0.000      0.000
REMARK  7 active torsions:
REMARK  status: ('A' for Active; 'I' for Inactive)
REMARK    1  A    between atoms: O_1  and  C_2 
REMARK    2  A    between atoms: C_7  and  O_8 
REMARK    3  A    between atoms: N_10  and  C_11 
REMARK    4  A    between atoms: C_11  and  N_13 
REMARK    5  A    between atoms: N_13  and  C_14 
REMARK    6  A    between atoms: C_14  and  C_15 
REMARK    7  A    between atoms: C_15  and  C_16 
ROOT
HETATM    1  C   UNL     1     -23.393  -4.069 -10.511  1.00  0.00     0.099 A 
HETATM    2  C   UNL     1     -22.006  -3.997 -10.390  1.00  0.00     0.047 A 
HETATM    3  C   UNL     1     -21.402  -3.984  -9.122  1.00  0.00    -0.047 A 
HETATM    4  C   UNL     1     -22.207  -4.029  -7.961  1.00  0.00    -0.031 A 
HETATM    5  C   UNL     1     -23.607  -4.103  -8.104  1.00  0.00     0.048 A 
HETATM    6  C   UNL     1     -24.191  -4.121  -9.370  1.00  0.00     0.099 A 
HETATM    7  C   UNL     1     -21.588  -4.006  -6.581  1.00  0.00     0.164 C 
HETATM    8  N   UNL     1     -20.811  -5.232  -6.319  1.00  0.00    -0.354 N 
HETATM    9  C   UNL     1     -19.438  -5.221  -6.840  1.00  0.00     0.126 C 
HETATM   10  C   UNL     1     -19.341  -5.225  -8.367  1.00  0.00     0.025 C 
HETATM   11  C   UNL     1     -19.896  -3.954  -9.018  1.00  0.00     0.041 C 
ENDROOT
BRANCH   8  12
HETATM   12  C   UNL     1     -21.348  -6.285  -5.563  1.00  0.00     0.170 C 
HETATM   13  S   UNL     1     -21.194  -7.909  -5.987  1.00  0.00    -0.041 SA
BRANCH  12  14
HETATM   14  N   UNL     1     -22.009  -5.877  -4.410  1.00  0.00    -0.367 N 
HETATM   15  H   UNL     1     -22.715  -5.171  -4.548  1.00  0.00     0.161 HD
BRANCH  14  16
HETATM   16  C   UNL     1     -21.356  -5.843  -3.096  1.00  0.00     0.126 C 
BRANCH  16  17
HETATM   17  C   UNL     1     -22.256  -6.215  -1.914  1.00  0.00     0.058 C 
BRANCH  17  18
HETATM   18  C   UNL     1     -21.838  -7.469  -1.183  1.00  0.00    -0.057 A 
HETATM   19  C   UNL     1     -21.036  -8.433  -1.812  1.00  0.00     0.009 A 
HETATM   20  C   UNL     1     -20.677  -9.605  -1.144  1.00  0.00     0.024 A 
HETATM   21  C   UNL     1     -21.105  -9.811   0.165  1.00  0.00     0.034 A 
HETATM   22 CL   UNL     1     -20.691 -11.268   0.981  1.00  0.00    -0.084 Cl
HETATM   23  C   UNL     1     -21.867  -8.846   0.816  1.00  0.00     0.024 A 
HETATM   24  C   UNL     1     -22.229  -7.674   0.146  1.00  0.00     0.009 A 
ENDBRANCH  17  18
ENDBRANCH  16  17
ENDBRANCH  14  16
ENDBRANCH  12  14
ENDBRANCH   8  12
BRANCH   6  25
HETATM   25  O   UNL     1     -25.549  -4.201  -9.509  1.00  0.00    -0.358 OA
HETATM   26  H   UNL     1     -25.969  -3.821  -8.723  1.00  0.00     0.217 HD
ENDBRANCH   6  25
BRANCH   1  27
HETATM   27  O   UNL     1     -23.979  -4.104 -11.744  1.00  0.00    -0.358 OA
HETATM   28  H   UNL     1     -24.924  -4.292 -11.641  1.00  0.00     0.217 HD
ENDBRANCH   1  27
TORSDOF 7
BEGIN_RES TYR D 554
REMARK  3 active torsions:
REMARK  status: ('A' for Active; 'I' for Inactive)
REMARK    1  A    between atoms: CA   and  CB  
REMARK    2  A    between atoms: CB   and  CG  
REMARK    3  A    between atoms: CZ   and  OH  
ROOT
ATOM      1  CA  TYR D 554     -27.084  -0.474 -11.738  1.00 32.65     0.164 C 
ENDROOT
BRANCH   1   2
ATOM      2  CB  TYR D 554     -28.348  -1.088 -11.169  1.00 32.65     0.058 C 
BRANCH   2   3
ATOM      3  CG  TYR D 554     -29.350  -1.393 -12.228  1.00 32.65    -0.020 A 
ATOM      4  CD1 TYR D 554     -29.079  -2.275 -13.236  1.00 32.65    -0.002 A 
ATOM      5  CE1 TYR D 554     -29.974  -2.510 -14.203  1.00 32.65     0.024 A 
ATOM      6  CZ  TYR D 554     -31.160  -1.852 -14.183  1.00 32.65     0.089 A 
ATOM      7  CE2 TYR D 554     -31.438  -0.972 -13.201  1.00 32.65     0.024 A 
ATOM      8  CD2 TYR D 554     -30.547  -0.750 -12.246  1.00 32.65    -0.002 A 
BRANCH   6   9
ATOM      9  OH  TYR D 554     -32.105  -2.055 -15.128  1.00 32.65    -0.359 OA
ATOM     10  HH  TYR D 554     -32.708  -2.496 -14.766  1.00 32.65     0.217 HD
ENDBRANCH   6   9
ENDBRANCH   2   3
ENDBRANCH   1   2
END_RES TYR D 554
BEGIN_RES ARG D 557
REMARK  4 active torsions:
REMARK  status: ('A' for Active; 'I' for Inactive)
REMARK    4  A    between atoms: CA   and  CB  
REMARK    5  A    between atoms: CB   and  CG  
REMARK    6  A    between atoms: CG   and  CD  
REMARK    7  A    between atoms: CD   and  NE  
REMARK       I    between atoms: NE   and  CZ  
REMARK       I    between atoms: CZ   and  NH1 
REMARK       I    between atoms: CZ   and  NH2 
ROOT
ATOM     11  CA  ARG D 557     -26.217   2.705 -17.014  1.00 35.49     0.159 C 
ENDROOT
BRANCH  11  12
ATOM     12  CB  ARG D 557     -26.789   1.319 -17.183  1.00 35.49     0.034 C 
BRANCH  12  13
ATOM     13  CG  ARG D 557     -25.854   0.196 -17.041  1.00 35.49     0.027 C 
BRANCH  13  14
ATOM     14  CD  ARG D 557     -26.219  -0.704 -15.924  1.00 35.49     0.116 C 
BRANCH  14  15
ATOM     15  NE  ARG D 557     -25.177  -0.793 -14.935  1.00 35.49    -0.212 N 
ATOM     16  CZ  ARG D 557     -24.777  -1.892 -14.337  1.00 35.49     0.666 C 
ATOM     17  NH1 ARG D 557     -25.321  -3.070 -14.580  1.00 35.49    -0.235 N 
ATOM     18  NH2 ARG D 557     -23.802  -1.789 -13.481  1.00 35.49    -0.235 N 
ATOM     19  HH  ARG D 557     -25.963  -3.161 -15.141  1.00 35.49     0.174 HD
ATOM     20  HH  ARG D 557     -25.017  -3.753 -14.161  1.00 35.49     0.174 HD
ATOM     21  HH  ARG D 557     -23.464  -1.017 -13.349  1.00 35.49     0.174 HD
ATOM     22  HH  ARG D 557     -23.514  -2.478 -13.078  1.00 35.49     0.174 HD
ATOM     23  HE  ARG D 557     -24.820  -0.069 -14.665  1.00 35.49     0.178 HD
ENDBRANCH  14  15
ENDBRANCH  13  14
ENDBRANCH  12  13
ENDBRANCH  11  12
END_RES ARG D 557
BEGIN_RES GLU D 570
REMARK  3 active torsions:
REMARK  status: ('A' for Active; 'I' for Inactive)
REMARK    8  A    between atoms: CA   and  CB  
REMARK    9  A    between atoms: CB   and  CG  
REMARK   10  A    between atoms: CG   and  CD  
ROOT
ATOM     24  CA  GLU D 570     -18.033  -6.348 -13.375  1.00 32.92     0.160 C 
ENDROOT
BRANCH  24  25
ATOM     25  CB  GLU D 570     -19.500  -6.345 -13.794  1.00 32.92     0.043 C 
BRANCH  25  26
ATOM     26  CG  GLU D 570     -20.401  -5.370 -13.126  1.00 32.92     0.100 C 
BRANCH  26  27
ATOM     27  CD  GLU D 570     -21.719  -5.199 -13.843  1.00 32.92     0.185 C 
ATOM     28  OE1 GLU D 570     -22.217  -4.060 -13.931  1.00 32.92    -0.647 OA
ATOM     29  OE2 GLU D 570     -22.269  -6.217 -14.308  1.00 32.92    -0.647 OA
ENDBRANCH  26  27
ENDBRANCH  25  26
ENDBRANCH  24  25
END_RES GLU D 570
ENDMDL
MODEL 2
REMARK VINA RESULT:      -9.2      1.636      2.200
REMARK  7 active torsions:
REMARK  status: ('A' for Active; 'I' for Inactive)
REMARK    1  A    between atoms: O_1  and  C_2 
REMARK    2  A    between atoms: C_7  and  O_8 
REMARK    3  A    between atoms: N_10  and  C_11 
REMARK    4  A    between atoms: C_11  and  N_13 
REMARK    5  A    between atoms: N_13  and  C_14 
REMARK    6  A    between atoms: C_14  and  C_15 
REMARK    7  A    between atoms: C_15  and  C_16 
ROOT
HETATM    1  C   UNL     1     -24.144  -3.422 -11.190  1.00  0.00     0.099 A 
HETATM    2  C   UNL     1     -22.759  -3.524 -11.316  1.00  0.00     0.047 A 
HETATM    3  C   UNL     1     -21.945  -3.604 -10.174  1.00  0.00    -0.047 A 
HETATM    4  C   UNL     1     -22.533  -3.568  -8.889  1.00  0.00    -0.031 A 
HETATM    5  C   UNL     1     -23.934  -3.468  -8.782  1.00  0.00     0.048 A 
HETATM    6  C   UNL     1     -24.730  -3.394  -9.925  1.00  0.00     0.099 A 
HETATM    7  C   UNL     1     -21.683  -3.643  -7.640  1.00  0.00     0.164 C 
HETATM    8  N   UNL     1     -21.030  -4.959  -7.511  1.00  0.00    -0.354 N 
HETATM    9  C   UNL     1     -19.778  -5.108  -8.266  1.00  0.00     0.126 C 
HETATM   10  C   UNL     1     -19.952  -5.100  -9.787  1.00  0.00     0.025 C 
HETATM   11  C   UNL     1     -20.453  -3.761 -10.337  1.00  0.00     0.041 C 
ENDROOT
BRANCH   8  12
HETATM   12  C   UNL     1     -21.551  -5.949  -6.666  1.00  0.00     0.170 C 
HETATM   13  S   UNL     1     -23.016  -5.796  -5.846  1.00  0.00    -0.041 SA
BRANCH  12  14
HETATM   14  N   UNL     1     -20.762  -7.090  -6.573  1.00  0.00    -0.367 N 
HETATM   15  H   UNL     1     -20.421  -7.447  -7.452  1.00  0.00     0.161 HD
BRANCH  14  16
HETATM   16  C   UNL     1     -20.965  -8.107  -5.533  1.00  0.00     0.126 C 
BRANCH  16  17
HETATM   17  C   UNL     1     -20.130  -7.912  -4.264  1.00  0.00     0.058 C 
BRANCH  17  18
HETATM   18  C   UNL     1     -20.934  -7.901  -2.986  1.00  0.00    -0.057 A 
HETATM   19  C   UNL     1     -21.529  -6.718  -2.522  1.00  0.00     0.009 A 
HETATM   20  C   UNL     1     -22.246  -6.706  -1.324  1.00  0.00     0.024 A 
HETATM   21  C   UNL     1     -22.386  -7.881  -0.591  1.00  0.00     0.034 A 
HETATM   22 CL   UNL     1     -23.241  -7.862   0.901  1.00  0.00    -0.084 Cl
HETATM   23  C   UNL     1     -21.835  -9.071  -1.059  1.00  0.00     0.024 A 
HETATM   24  C   UNL     1     -21.115  -9.082  -2.257  1.00  0.00     0.009 A 
ENDBRANCH  17  18
ENDBRANCH  16  17
ENDBRANCH  14  16
ENDBRANCH  12  14
ENDBRANCH   8  12
BRANCH   6  25
HETATM   25  O   UNL     1     -26.090  -3.304  -9.823  1.00  0.00    -0.358 OA
HETATM   26  H   UNL     1     -26.336  -2.373  -9.714  1.00  0.00     0.217 HD
ENDBRANCH   6  25
BRANCH   1  27
HETATM   27  O   UNL     1     -24.938  -3.366 -12.299  1.00  0.00    -0.358 OA
HETATM   28  H   UNL     1     -24.870  -2.485 -12.695  1.00  0.00     0.217 HD
ENDBRANCH   1  27
TORSDOF 7
BEGIN_RES TYR D 554
REMARK  3 active torsions:
REMARK  status: ('A' for Active; 'I' for Inactive)
REMARK    1  A    between atoms: CA   and  CB  
REMARK    2  A    between atoms: CB   and  CG  
REMARK    3  A    between atoms: CZ   and  OH  
ROOT
ATOM      1  CA  TYR D 554     -27.084  -0.474 -11.738  1.00 32.65     0.164 C 
ENDROOT
BRANCH   1   2
ATOM      2  CB  TYR D 554     -28.348  -1.088 -11.169  1.00 32.65     0.058 C 
BRANCH   2   3
ATOM      3  CG  TYR D 554     -29.389  -1.301 -12.214  1.00 32.65    -0.020 A 
ATOM      4  CD1 TYR D 554     -30.409  -0.410 -12.399  1.00 32.65    -0.002 A 
ATOM      5  CE1 TYR D 554     -31.359  -0.634 -13.315  1.00 32.65     0.024 A 
ATOM      6  CZ  TYR D 554     -31.309  -1.767 -14.057  1.00 32.65     0.089 A 
ATOM      7  CE2 TYR D 554     -30.315  -2.660 -13.880  1.00 32.65     0.024 A 
ATOM      8  CD2 TYR D 554     -29.377  -2.427 -12.974  1.00 32.65    -0.002 A 
BRANCH   6   9
ATOM      9  OH  TYR D 554     -32.237  -2.042 -15.002  1.00 32.65    -0.359 OA
ATOM     10  HH  TYR D 554     -32.915  -1.610 -14.797  1.00 32.65     0.217 HD
ENDBRANCH   6   9
ENDBRANCH   2   3
ENDBRANCH   1   2
END_RES TYR D 554
BEGIN_RES ARG D 557
REMARK  4 active torsions:
REMARK  status: ('A' for Active; 'I' for Inactive)
REMARK    4  A    between atoms: CA   and  CB  
REMARK    5  A    between atoms: CB   and  CG  
REMARK    6  A    between atoms: CG   and  CD  
REMARK    7  A    between atoms: CD   and  NE  
REMARK       I    between atoms: NE   and  CZ  
REMARK       I    between atoms: CZ   and  NH1 
REMARK       I    between atoms: CZ   and  NH2 
ROOT
ATOM     11  CA  ARG D 557     -26.217   2.705 -17.014  1.00 35.49     0.159 C 
ENDROOT
BRANCH  11  12
ATOM     12  CB  ARG D 557     -26.789   1.319 -17.183  1.00 35.49     0.034 C 
BRANCH  12  13
ATOM     13  CG  ARG D 557     -28.201   1.139 -16.825  1.00 35.49     0.027 C 
BRANCH  13  14
ATOM     14  CD  ARG D 557     -28.544  -0.280 -16.577  1.00 35.49     0.116 C 
BRANCH  14  15
ATOM     15  NE  ARG D 557     -27.534  -0.955 -15.806  1.00 35.49    -0.212 N 
ATOM     16  CZ  ARG D 557     -27.275  -2.243 -15.839  1.00 35.49     0.666 C 
ATOM     17  NH1 ARG D 557     -27.950  -3.083 -16.602  1.00 35.49    -0.235 N 
ATOM     18  NH2 ARG D 557     -26.307  -2.681 -15.087  1.00 35.49    -0.235 N 
ATOM     19  HH  ARG D 557     -28.589  -2.817 -17.107  1.00 35.49     0.174 HD
ATOM     20  HH  ARG D 557     -27.734  -3.912 -16.585  1.00 35.49     0.174 HD
ATOM     21  HH  ARG D 557     -25.883  -2.115 -14.610  1.00 35.49     0.174 HD
ATOM     22  HH  ARG D 557     -26.108  -3.505 -15.085  1.00 35.49     0.174 HD
ATOM     23  HE  ARG D 557     -27.099  -0.502 -15.233  1.00 35.49     0.178 HD
ENDBRANCH  14  15
ENDBRANCH  13  14
ENDBRANCH  12  13
ENDBRANCH  11  12
END_RES ARG D 557
BEGIN_RES GLU D 570
REMARK  3 active torsions:
REMARK  status: ('A' for Active; 'I' for Inactive)
REMARK    8  A    between atoms: CA   and  CB  
REMARK    9  A    between atoms: CB   and  CG  
REMARK   10  A    between atoms: CG   and  CD  
ROOT
ATOM     24  CA  GLU D 570     -18.033  -6.348 -13.375  1.00 32.92     0.160 C 
ENDROOT
BRANCH  24  25
ATOM     25  CB  GLU D 570     -19.500  -6.345 -13.794  1.00 32.92     0.043 C 
BRANCH  25  26
ATOM     26  CG  GLU D 570     -19.809  -5.990 -15.203  1.00 32.92     0.100 C 
BRANCH  26  27
ATOM     27  CD  GLU D 570     -21.206  -5.444 -15.381  1.00 32.92     0.185 C 
ATOM     28  OE1 GLU D 570     -21.997  -5.480 -14.419  1.00 32.92    -0.647 OA
ATOM     29  OE2 GLU D 570     -21.519  -4.991 -16.500  1.00 32.92    -0.647 OA
ENDBRANCH  26  27
ENDBRANCH  25  26
ENDBRANCH  24  25
END_RES GLU D 570
ENDMDL
MODEL 3
REMARK VINA RESULT:      -8.3      4.013      7.390
REMARK  7 active torsions:
REMARK  status: ('A' for Active; 'I' for Inactive)
REMARK    1  A    between atoms: O_1  and  C_2 
REMARK    2  A    between atoms: C_7  and  O_8 
REMARK    3  A    between atoms: N_10  and  C_11 
REMARK    4  A    between atoms: C_11  and  N_13 
REMARK    5  A    between atoms: N_13  and  C_14 
REMARK    6  A    between atoms: C_14  and  C_15 
REMARK    7  A    between atoms: C_15  and  C_16 
ROOT
HETATM    1  C   UNL     1     -23.225 -10.708  -0.274  1.00  0.00     0.099 A 
HETATM    2  C   UNL     1     -23.114  -9.332  -0.079  1.00  0.00     0.047 A 
HETATM    3  C   UNL     1     -22.154  -8.589  -0.786  1.00  0.00    -0.047 A 
HETATM    4  C   UNL     1     -21.285  -9.243  -1.690  1.00  0.00    -0.031 A 
HETATM    5  C   UNL     1     -21.415 -10.634  -1.874  1.00  0.00     0.048 A 
HETATM    6  C   UNL     1     -22.377 -11.357  -1.169  1.00  0.00     0.099 A 
HETATM    7  C   UNL     1     -20.235  -8.473  -2.458  1.00  0.00     0.164 C 
HETATM    8  N   UNL     1     -20.849  -7.544  -3.427  1.00  0.00    -0.354 N 
HETATM    9  C   UNL     1     -21.265  -6.251  -2.869  1.00  0.00     0.126 C 
HETATM   10  C   UNL     1     -22.429  -6.333  -1.879  1.00  0.00     0.025 C 
HETATM   11  C   UNL     1     -22.085  -7.093  -0.594  1.00  0.00     0.041 C 
ENDROOT
BRANCH   8  12
HETATM   12  C   UNL     1     -20.949  -7.874  -4.786  1.00  0.00     0.170 C 
HETATM   13  S   UNL     1     -20.794  -9.445  -5.377  1.00  0.00    -0.041 SA
BRANCH  12  14
HETATM   14  N   UNL     1     -21.209  -6.790  -5.616  1.00  0.00    -0.367 N 
HETATM   15  H   UNL     1     -22.115  -6.795  -6.057  1.00  0.00     0.161 HD
BRANCH  14  16
HETATM   16  C   UNL     1     -20.156  -6.113  -6.384  1.00  0.00     0.126 C 
BRANCH  16  17
HETATM   17  C   UNL     1     -20.445  -4.650  -6.733  1.00  0.00     0.058 C 
BRANCH  17  18
HETATM   18  C   UNL     1     -20.882  -4.426  -8.161  1.00  0.00    -0.057 A 
HETATM   19  C   UNL     1     -22.176  -3.970  -8.453  1.00  0.00     0.009 A 
HETATM   20  C   UNL     1     -22.585  -3.793  -9.776  1.00  0.00     0.024 A 
HETATM   21  C   UNL     1     -21.696  -4.055 -10.814  1.00  0.00     0.034 A 
HETATM   22 CL   UNL     1     -22.207  -3.868 -12.446  1.00  0.00    -0.084 Cl
HETATM   23  C   UNL     1     -20.396  -4.469 -10.539  1.00  0.00     0.024 A 
HETATM   24  C   UNL     1     -19.987  -4.649  -9.215  1.00  0.00     0.009 A 
ENDBRANCH  17  18
ENDBRANCH  16  17
ENDBRANCH  14  16
ENDBRANCH  12  14
ENDBRANCH   8  12
BRANCH   6  25
HETATM   25  O   UNL     1     -22.507 -12.706  -1.353  1.00  0.00    -0.358 OA
HETATM   26  H   UNL     1     -21.708 -13.147  -1.027  1.00  0.00     0.217 HD
ENDBRANCH   6  25
BRANCH   1  27
HETATM   27  O   UNL     1     -24.172 -11.428   0.396  1.00  0.00    -0.358 OA
HETATM   28  H   UNL     1     -23.987 -11.392   1.347  1.00  0.00     0.217 HD
ENDBRANCH   1  27
TORSDOF 7
BEGIN_RES TYR D 554
REMARK  3 active torsions:
REMARK  status: ('A' for Active; 'I' for Inactive)
REMARK    1  A    between atoms: CA   and  CB  
REMARK    2  A    between atoms: CB   and  CG  
REMARK    3  A    between atoms: CZ   and  OH  
ROOT
ATOM      1  CA  TYR D 554     -27.084  -0.474 -11.738  1.00 32.65     0.164 C 
ENDROOT
BRANCH   1   2
ATOM      2  CB  TYR D 554     -28.348  -1.088 -11.169  1.00 32.65     0.058 C 
BRANCH   2   3
ATOM      3  CG  TYR D 554     -29.376  -1.333 -12.220  1.00 32.65    -0.020 A 
ATOM      4  CD1 TYR D 554     -30.453  -0.506 -12.373  1.00 32.65    -0.002 A 
ATOM      5  CE1 TYR D 554     -31.389  -0.760 -13.295  1.00 32.65     0.024 A 
ATOM      6  CZ  TYR D 554     -31.267  -1.861 -14.077  1.00 32.65     0.089 A 
ATOM      7  CE2 TYR D 554     -30.215  -2.692 -13.931  1.00 32.65     0.024 A 
ATOM      8  CD2 TYR D 554     -29.292  -2.429 -13.019  1.00 32.65    -0.002 A 
BRANCH   6   9
ATOM      9  OH  TYR D 554     -32.177  -2.164 -15.030  1.00 32.65    -0.359 OA
ATOM     10  HH  TYR D 554     -32.149  -1.547 -15.585  1.00 32.65     0.217 HD
ENDBRANCH   6   9
ENDBRANCH   2   3
ENDBRANCH   1   2
END_RES TYR D 554
BEGIN_RES ARG D 557
REMARK  4 active torsions:
REMARK  status: ('A' for Active; 'I' for Inactive)
REMARK    4  A    between atoms: CA   and  CB  
REMARK    5  A    between atoms: CB   and  CG  
REMARK    6  A    between atoms: CG   and  CD  
REMARK    7  A    between atoms: CD   and  NE  
REMARK       I    between atoms: NE   and  CZ  
REMARK       I    between atoms: CZ   and  NH1 
REMARK       I    between atoms: CZ   and  NH2 
ROOT
ATOM     11  CA  ARG D 557     -26.217   2.705 -17.014  1.00 35.49     0.159 C 
ENDROOT
BRANCH  11  12
ATOM     12  CB  ARG D 557     -26.789   1.319 -17.183  1.00 35.49     0.034 C 
BRANCH  12  13
ATOM     13  CG  ARG D 557     -28.133   1.088 -16.640  1.00 35.49     0.027 C 
BRANCH  13  14
ATOM     14  CD  ARG D 557     -28.813  -0.059 -17.284  1.00 35.49     0.116 C 
BRANCH  14  15
ATOM     15  NE  ARG D 557     -28.225  -1.318 -16.909  1.00 35.49    -0.212 N 
ATOM     16  CZ  ARG D 557     -28.791  -2.497 -17.033  1.00 35.49     0.666 C 
ATOM     17  NH1 ARG D 557     -30.009  -2.652 -17.520  1.00 35.49    -0.235 N 
ATOM     18  NH2 ARG D 557     -28.102  -3.536 -16.661  1.00 35.49    -0.235 N 
ATOM     19  HH  ARG D 557     -30.479  -1.982 -17.774  1.00 35.49     0.174 HD
ATOM     20  HH  ARG D 557     -30.325  -3.446 -17.580  1.00 35.49     0.174 HD
ATOM     21  HH  ARG D 557     -27.315  -3.407 -16.357  1.00 35.49     0.174 HD
ATOM     22  HH  ARG D 557     -28.432  -4.314 -16.730  1.00 35.49     0.174 HD
ATOM     23  HE  ARG D 557     -27.469  -1.305 -16.519  1.00 35.49     0.178 HD
ENDBRANCH  14  15
ENDBRANCH  13  14
ENDBRANCH  12  13
ENDBRANCH  11  12
END_RES ARG D 557
BEGIN_RES GLU D 570
REMARK  3 active torsions:
REMARK  status: ('A' for Active; 'I' for Inactive)
REMARK    8  A    between atoms: CA   and  CB  
REMARK    9  A    between atoms: CB   and  CG  
REMARK   10  A    between atoms: CG   and  CD  
ROOT
ATOM     24  CA  GLU D 570     -18.033  -6.348 -13.375  1.00 32.92     0.160 C 
ENDROOT
BRANCH  24  25
ATOM     25  CB  GLU D 570     -19.500  -6.345 -13.794  1.00 32.92     0.043 C 
BRANCH  25  26
ATOM     26  CG  GLU D 570     -19.808  -6.003 -15.207  1.00 32.92     0.100 C 
BRANCH  26  27
ATOM     27  CD  GLU D 570     -21.279  -5.755 -15.446  1.00 32.92     0.185 C 
ATOM     28  OE1 GLU D 570     -21.628  -4.719 -16.044  1.00 32.92    -0.647 OA
ATOM     29  OE2 GLU D 570     -22.092  -6.597 -15.016  1.00 32.92    -0.647 OA
ENDBRANCH  26  27
ENDBRANCH  25  26
ENDBRANCH  24  25
END_RES GLU D 570
ENDMDL
MODEL 4
REMARK VINA RESULT:      -8.2      3.804      7.194
REMARK  7 active torsions:
REMARK  status: ('A' for Active; 'I' for Inactive)
REMARK    1  A    between atoms: O_1  and  C_2 
REMARK    2  A    between atoms: C_7  and  O_8 
REMARK    3  A    between atoms: N_10  and  C_11 
REMARK    4  A    between atoms: C_11  and  N_13 
REMARK    5  A    between atoms: N_13  and  C_14 
REMARK    6  A    between atoms: C_14  and  C_15 
REMARK    7  A    between atoms: C_15  and  C_16 
ROOT
HETATM    1  C   UNL     1     -23.193 -10.781  -0.332  1.00  0.00     0.099 A 
HETATM    2  C   UNL     1     -23.104  -9.410  -0.097  1.00  0.00     0.047 A 
HETATM    3  C   UNL     1     -22.156  -8.632  -0.782  1.00  0.00    -0.047 A 
HETATM    4  C   UNL     1     -21.277  -9.246  -1.703  1.00  0.00    -0.031 A 
HETATM    5  C   UNL     1     -21.384 -10.633  -1.928  1.00  0.00     0.048 A 
HETATM    6  C   UNL     1     -22.335 -11.391  -1.245  1.00  0.00     0.099 A 
HETATM    7  C   UNL     1     -20.238  -8.438  -2.448  1.00  0.00     0.164 C 
HETATM    8  N   UNL     1     -20.866  -7.491  -3.390  1.00  0.00    -0.354 N 
HETATM    9  C   UNL     1     -21.302  -6.221  -2.795  1.00  0.00     0.126 C 
HETATM   10  C   UNL     1     -22.465  -6.350  -1.808  1.00  0.00     0.025 C 
HETATM   11  C   UNL     1     -22.110  -7.142  -0.546  1.00  0.00     0.041 C 
ENDROOT
BRANCH   8  12
HETATM   12  C   UNL     1     -20.961  -7.782  -4.758  1.00  0.00     0.170 C 
HETATM   13  S   UNL     1     -20.793  -9.335  -5.394  1.00  0.00    -0.041 SA
BRANCH  12  14
HETATM   14  N   UNL     1     -21.227  -6.677  -5.557  1.00  0.00    -0.367 N 
HETATM   15  H   UNL     1     -22.103  -6.709  -6.055  1.00  0.00     0.161 HD
BRANCH  14  16
HETATM   16  C   UNL     1     -20.167  -5.914  -6.228  1.00  0.00     0.126 C 
BRANCH  16  17
HETATM   17  C   UNL     1     -20.576  -4.517  -6.705  1.00  0.00     0.058 C 
BRANCH  17  18
HETATM   18  C   UNL     1     -20.979  -4.450  -8.159  1.00  0.00    -0.057 A 
HETATM   19  C   UNL     1     -22.326  -4.306  -8.525  1.00  0.00     0.009 A 
HETATM   20  C   UNL     1     -22.697  -4.275  -9.870  1.00  0.00     0.024 A 
HETATM   21  C   UNL     1     -21.721  -4.371 -10.858  1.00  0.00     0.034 A 
HETATM   22 CL   UNL     1     -22.178  -4.365 -12.516  1.00  0.00    -0.084 Cl
HETATM   23  C   UNL     1     -20.377  -4.473 -10.511  1.00  0.00     0.024 A 
HETATM   24  C   UNL     1     -20.006  -4.507  -9.164  1.00  0.00     0.009 A 
ENDBRANCH  17  18
ENDBRANCH  16  17
ENDBRANCH  14  16
ENDBRANCH  12  14
ENDBRANCH   8  12
BRANCH   6  25
HETATM   25  O   UNL     1     -22.445 -12.735  -1.468  1.00  0.00    -0.358 OA
HETATM   26  H   UNL     1     -22.642 -12.885  -2.405  1.00  0.00     0.217 HD
ENDBRANCH   6  25
BRANCH   1  27
HETATM   27  O   UNL     1     -24.130 -11.535   0.317  1.00  0.00    -0.358 OA
HETATM   28  H   UNL     1     -24.618 -10.972   0.937  1.00  0.00     0.217 HD
ENDBRANCH   1  27
TORSDOF 7
BEGIN_RES TYR D 554
REMARK  3 active torsions:
REMARK  status: ('A' for Active; 'I' for Inactive)
REMARK    1  A    between atoms: CA   and  CB  
REMARK    2  A    between atoms: CB   and  CG  
REMARK    3  A    between atoms: CZ   and  OH  
ROOT
ATOM      1  CA  TYR D 554     -27.084  -0.474 -11.738  1.00 32.65     0.164 C 
ENDROOT
BRANCH   1   2
ATOM      2  CB  TYR D 554     -28.348  -1.088 -11.169  1.00 32.65     0.058 C 
BRANCH   2   3
ATOM      3  CG  TYR D 554     -29.353  -1.388 -12.228  1.00 32.65    -0.020 A 
ATOM      4  CD1 TYR D 554     -29.102  -2.299 -13.214  1.00 32.65    -0.002 A 
ATOM      5  CE1 TYR D 554     -29.998  -2.530 -14.181  1.00 32.65     0.024 A 
ATOM      6  CZ  TYR D 554     -31.164  -1.837 -14.183  1.00 32.65     0.089 A 
ATOM      7  CE2 TYR D 554     -31.422  -0.927 -13.222  1.00 32.65     0.024 A 
ATOM      8  CD2 TYR D 554     -30.530  -0.710 -12.267  1.00 32.65    -0.002 A 
BRANCH   6   9
ATOM      9  OH  TYR D 554     -32.109  -2.033 -15.130  1.00 32.65    -0.359 OA
ATOM     10  HH  TYR D 554     -32.534  -2.709 -14.900  1.00 32.65     0.217 HD
ENDBRANCH   6   9
ENDBRANCH   2   3
ENDBRANCH   1   2
END_RES TYR D 554
BEGIN_RES ARG D 557
REMARK  4 active torsions:
REMARK  status: ('A' for Active; 'I' for Inactive)
REMARK    4  A    between atoms: CA   and  CB  
REMARK    5  A    between atoms: CB   and  CG  
REMARK    6  A    between atoms: CG   and  CD  
REMARK    7  A    between atoms: CD   and  NE  
REMARK       I    between atoms: NE   and  CZ  
REMARK       I    between atoms: CZ   and  NH1 
REMARK       I    between atoms: CZ   and  NH2 
ROOT
ATOM     11  CA  ARG D 557     -26.217   2.705 -17.014  1.00 35.49     0.159 C 
ENDROOT
BRANCH  11  12
ATOM     12  CB  ARG D 557     -26.789   1.319 -17.183  1.00 35.49     0.034 C 
BRANCH  12  13
ATOM     13  CG  ARG D 557     -25.837   0.202 -17.142  1.00 35.49     0.027 C 
BRANCH  13  14
ATOM     14  CD  ARG D 557     -24.762   0.413 -16.146  1.00 35.49     0.116 C 
BRANCH  14  15
ATOM     15  NE  ARG D 557     -24.917  -0.435 -14.993  1.00 35.49    -0.212 N 
ATOM     16  CZ  ARG D 557     -24.118  -1.420 -14.651  1.00 35.49     0.666 C 
ATOM     17  NH1 ARG D 557     -23.059  -1.755 -15.365  1.00 35.49    -0.235 N 
ATOM     18  NH2 ARG D 557     -24.400  -2.071 -13.560  1.00 35.49    -0.235 N 
ATOM     19  HH  ARG D 557     -22.854  -1.339 -16.086  1.00 35.49     0.174 HD
ATOM     20  HH  ARG D 557     -22.573  -2.405 -15.092  1.00 35.49     0.174 HD
ATOM     21  HH  ARG D 557     -25.086  -1.828 -13.115  1.00 35.49     0.174 HD
ATOM     22  HH  ARG D 557     -23.905  -2.711 -13.305  1.00 35.49     0.174 HD
ATOM     23  HE  ARG D 557     -25.614  -0.336 -14.516  1.00 35.49     0.178 HD
ENDBRANCH  14  15
ENDBRANCH  13  14
ENDBRANCH  12  13
ENDBRANCH  11  12
END_RES ARG D 557
BEGIN_RES GLU D 570
REMARK  3 active torsions:
REMARK  status: ('A' for Active; 'I' for Inactive)
REMARK    8  A    between atoms: CA   and  CB  
REMARK    9  A    between atoms: CB   and  CG  
REMARK   10  A    between atoms: CG   and  CD  
ROOT
ATOM     24  CA  GLU D 570     -18.033  -6.348 -13.375  1.00 32.92     0.160 C 
ENDROOT
BRANCH  24  25
ATOM     25  CB  GLU D 570     -19.500  -6.345 -13.794  1.00 32.92     0.043 C 
BRANCH  25  26
ATOM     26  CG  GLU D 570     -20.100  -7.644 -14.194  1.00 32.92     0.100 C 
BRANCH  26  27
ATOM     27  CD  GLU D 570     -21.054  -7.518 -15.360  1.00 32.92     0.185 C 
ATOM     28  OE1 GLU D 570     -21.994  -6.705 -15.287  1.00 32.92    -0.647 OA
ATOM     29  OE2 GLU D 570     -20.867  -8.254 -16.349  1.00 32.92    -0.647 OA
ENDBRANCH  26  27
ENDBRANCH  25  26
ENDBRANCH  24  25
END_RES GLU D 570
ENDMDL
MODEL 5
REMARK VINA RESULT:      -8.1      3.673      5.727
REMARK  7 active torsions:
REMARK  status: ('A' for Active; 'I' for Inactive)
REMARK    1  A    between atoms: O_1  and  C_2 
REMARK    2  A    between atoms: C_7  and  O_8 
REMARK    3  A    between atoms: N_10  and  C_11 
REMARK    4  A    between atoms: C_11  and  N_13 
REMARK    5  A    between atoms: N_13  and  C_14 
REMARK    6  A    between atoms: C_14  and  C_15 
REMARK    7  A    between atoms: C_15  and  C_16 
ROOT
HETATM    1  C   UNL     1     -22.213  -7.992  -0.088  1.00  0.00     0.099 A 
HETATM    2  C   UNL     1     -22.318  -7.168  -1.206  1.00  0.00     0.047 A 
HETATM    3  C   UNL     1     -21.429  -7.314  -2.284  1.00  0.00    -0.047 A 
HETATM    4  C   UNL     1     -20.411  -8.294  -2.226  1.00  0.00    -0.031 A 
HETATM    5  C   UNL     1     -20.322  -9.119  -1.087  1.00  0.00     0.048 A 
HETATM    6  C   UNL     1     -21.217  -8.965  -0.028  1.00  0.00     0.099 A 
HETATM    7  C   UNL     1     -19.432  -8.469  -3.365  1.00  0.00     0.164 C 
HETATM    8  N   UNL     1     -20.103  -8.966  -4.581  1.00  0.00    -0.354 N 
HETATM    9  C   UNL     1     -20.742  -7.932  -5.405  1.00  0.00     0.126 C 
HETATM   10  C   UNL     1     -21.950  -7.258  -4.750  1.00  0.00     0.025 C 
HETATM   11  C   UNL     1     -21.593  -6.441  -3.504  1.00  0.00     0.041 C 
ENDROOT
BRANCH   8  12
HETATM   12  C   UNL     1     -20.055 -10.322  -4.934  1.00  0.00     0.170 C 
HETATM   13  S   UNL     1     -18.667 -11.271  -4.803  1.00  0.00    -0.041 SA
BRANCH  12  14
HETATM   14  N   UNL     1     -21.265 -10.835  -5.387  1.00  0.00    -0.367 N 
HETATM   15  H   UNL     1     -21.736 -10.272  -6.078  1.00  0.00     0.161 HD
BRANCH  14  16
HETATM   16  C   UNL     1     -22.155 -11.631  -4.532  1.00  0.00     0.126 C 
BRANCH  16  17
HETATM   17  C   UNL     1     -22.893 -10.839  -3.449  1.00  0.00     0.058 C 
BRANCH  17  18
HETATM   18  C   UNL     1     -22.897 -11.498  -2.090  1.00  0.00    -0.057 A 
HETATM   19  C   UNL     1     -21.911 -12.435  -1.744  1.00  0.00     0.009 A 
HETATM   20  C   UNL     1     -21.936 -13.064  -0.498  1.00  0.00     0.024 A 
HETATM   21  C   UNL     1     -22.938 -12.747   0.416  1.00  0.00     0.034 A 
HETATM   22 CL   UNL     1     -22.989 -13.544   1.939  1.00  0.00    -0.084 Cl
HETATM   23  C   UNL     1     -23.899 -11.790   0.102  1.00  0.00     0.024 A 
HETATM   24  C   UNL     1     -23.876 -11.163  -1.146  1.00  0.00     0.009 A 
ENDBRANCH  17  18
ENDBRANCH  16  17
ENDBRANCH  14  16
ENDBRANCH  12  14
ENDBRANCH   8  12
BRANCH   6  25
HETATM   25  O   UNL     1     -21.136  -9.770   1.074  1.00  0.00    -0.358 OA
HETATM   26  H   UNL     1     -21.904  -9.607   1.641  1.00  0.00     0.217 HD
ENDBRANCH   6  25
BRANCH   1  27
HETATM   27  O   UNL     1     -23.091  -7.866   0.951  1.00  0.00    -0.358 OA
HETATM   28  H   UNL     1     -23.175  -8.719   1.402  1.00  0.00     0.217 HD
ENDBRANCH   1  27
TORSDOF 7
BEGIN_RES TYR D 554
REMARK  3 active torsions:
REMARK  status: ('A' for Active; 'I' for Inactive)
REMARK    1  A    between atoms: CA   and  CB  
REMARK    2  A    between atoms: CB   and  CG  
REMARK    3  A    between atoms: CZ   and  OH  
ROOT
ATOM      1  CA  TYR D 554     -27.084  -0.474 -11.738  1.00 32.65     0.164 C 
ENDROOT
BRANCH   1   2
ATOM      2  CB  TYR D 554     -28.348  -1.088 -11.169  1.00 32.65     0.058 C 
BRANCH   2   3
ATOM      3  CG  TYR D 554     -29.386  -1.306 -12.215  1.00 32.65    -0.020 A 
ATOM      4  CD1 TYR D 554     -30.439  -0.448 -12.368  1.00 32.65    -0.002 A 
ATOM      5  CE1 TYR D 554     -31.385  -0.678 -13.286  1.00 32.65     0.024 A 
ATOM      6  CZ  TYR D 554     -31.299  -1.786 -14.063  1.00 32.65     0.089 A 
ATOM      7  CE2 TYR D 554     -30.273  -2.648 -13.917  1.00 32.65     0.024 A 
ATOM      8  CD2 TYR D 554     -29.339  -2.408 -13.009  1.00 32.65    -0.002 A 
BRANCH   6   9
ATOM      9  OH  TYR D 554     -32.222  -2.066 -15.011  1.00 32.65    -0.359 OA
ATOM     10  HH  TYR D 554     -32.423  -1.341 -15.363  1.00 32.65     0.217 HD
ENDBRANCH   6   9
ENDBRANCH   2   3
ENDBRANCH   1   2
END_RES TYR D 554
BEGIN_RES ARG D 557
REMARK  4 active torsions:
REMARK  status: ('A' for Active; 'I' for Inactive)
REMARK    4  A    between atoms: CA   and  CB  
REMARK    5  A    between atoms: CB   and  CG  
REMARK    6  A    between atoms: CG   and  CD  
REMARK    7  A    between atoms: CD   and  NE  
REMARK       I    between atoms: NE   and  CZ  
REMARK       I    between atoms: CZ   and  NH1 
REMARK       I    between atoms: CZ   and  NH2 
ROOT
ATOM     11  CA  ARG D 557     -26.217   2.705 -17.014  1.00 35.49     0.159 C 
ENDROOT
BRANCH  11  12
ATOM     12  CB  ARG D 557     -26.789   1.319 -17.183  1.00 35.49     0.034 C 
BRANCH  12  13
ATOM     13  CG  ARG D 557     -28.241   1.223 -17.379  1.00 35.49     0.027 C 
BRANCH  13  14
ATOM     14  CD  ARG D 557     -28.876   0.276 -16.434  1.00 35.49     0.116 C 
BRANCH  14  15
ATOM     15  NE  ARG D 557     -29.318  -0.928 -17.087  1.00 35.49    -0.212 N 
ATOM     16  CZ  ARG D 557     -28.731  -2.102 -17.012  1.00 35.49     0.666 C 
ATOM     17  NH1 ARG D 557     -27.628  -2.300 -16.315  1.00 35.49    -0.235 N 
ATOM     18  NH2 ARG D 557     -29.283  -3.090 -17.653  1.00 35.49    -0.235 N 
ATOM     19  HH  ARG D 557     -27.249  -1.664 -15.884  1.00 35.49     0.174 HD
ATOM     20  HH  ARG D 557     -27.292  -3.088 -16.300  1.00 35.49     0.174 HD
ATOM     21  HH  ARG D 557     -30.000  -2.935 -18.089  1.00 35.49     0.174 HD
ATOM     22  HH  ARG D 557     -28.936  -3.864 -17.626  1.00 35.49     0.174 HD
ATOM     23  HE  ARG D 557     -29.981  -0.875 -17.616  1.00 35.49     0.178 HD
ENDBRANCH  14  15
ENDBRANCH  13  14
ENDBRANCH  12  13
ENDBRANCH  11  12
END_RES ARG D 557
BEGIN_RES GLU D 570
REMARK  3 active torsions:
REMARK  status: ('A' for Active; 'I' for Inactive)
REMARK    8  A    between atoms: CA   and  CB  
REMARK    9  A    between atoms: CB   and  CG  
REMARK   10  A    between atoms: CG   and  CD  
ROOT
ATOM     24  CA  GLU D 570     -18.033  -6.348 -13.375  1.00 32.92     0.160 C 
ENDROOT
BRANCH  24  25
ATOM     25  CB  GLU D 570     -19.500  -6.345 -13.794  1.00 32.92     0.043 C 
BRANCH  25  26
ATOM     26  CG  GLU D 570     -20.442  -5.532 -12.982  1.00 32.92     0.100 C 
BRANCH  26  27
ATOM     27  CD  GLU D 570     -21.733  -5.227 -13.706  1.00 32.92     0.185 C 
ATOM     28  OE1 GLU D 570     -22.163  -6.042 -14.546  1.00 32.92    -0.647 OA
ATOM     29  OE2 GLU D 570     -22.311  -4.155 -13.444  1.00 32.92    -0.647 OA
ENDBRANCH  26  27
ENDBRANCH  25  26
ENDBRANCH  24  25
END_RES GLU D 570
ENDMDL
MODEL 6
REMARK VINA RESULT:      -8.1      5.552      8.604
REMARK  7 active torsions:
REMARK  status: ('A' for Active; 'I' for Inactive)
REMARK    1  A    between atoms: O_1  and  C_2 
REMARK    2  A    between atoms: C_7  and  O_8 
REMARK    3  A    between atoms: N_10  and  C_11 
REMARK    4  A    between atoms: C_11  and  N_13 
REMARK    5  A    between atoms: N_13  and  C_14 
REMARK    6  A    between atoms: C_14  and  C_15 
REMARK    7  A    between atoms: C_15  and  C_16 
ROOT
HETATM    1  C   UNL     1     -25.027  -6.909 -20.089  1.00  0.00     0.099 A 
HETATM    2  C   UNL     1     -26.253  -6.480 -19.584  1.00  0.00     0.047 A 
HETATM    3  C   UNL     1     -26.480  -6.448 -18.198  1.00  0.00    -0.047 A 
HETATM    4  C   UNL     1     -25.462  -6.867 -17.310  1.00  0.00    -0.031 A 
HETATM    5  C   UNL     1     -24.229  -7.295 -17.840  1.00  0.00     0.048 A 
HETATM    6  C   UNL     1     -24.017  -7.316 -19.219  1.00  0.00     0.099 A 
HETATM    7  C   UNL     1     -25.679  -6.853 -15.814  1.00  0.00     0.164 C 
HETATM    8  N   UNL     1     -25.819  -5.477 -15.302  1.00  0.00    -0.354 N 
HETATM    9  C   UNL     1     -27.169  -4.907 -15.414  1.00  0.00     0.126 C 
HETATM   10  C   UNL     1     -27.631  -4.653 -16.851  1.00  0.00     0.025 C 
HETATM   11  C   UNL     1     -27.799  -5.934 -17.674  1.00  0.00     0.041 C 
ENDROOT
BRANCH   8  12
HETATM   12  C   UNL     1     -24.743  -4.815 -14.694  1.00  0.00     0.170 C 
HETATM   13  S   UNL     1     -23.254  -5.543 -14.388  1.00  0.00    -0.041 SA
BRANCH  12  14
HETATM   14  N   UNL     1     -24.999  -3.485 -14.378  1.00  0.00    -0.367 N 
HETATM   15  H   UNL     1     -25.360  -2.927 -15.136  1.00  0.00     0.161 HD
BRANCH  14  16
HETATM   16  C   UNL     1     -24.208  -2.743 -13.389  1.00  0.00     0.126 C 
BRANCH  16  17
HETATM   17  C   UNL     1     -24.520  -3.074 -11.927  1.00  0.00     0.058 C 
BRANCH  17  18
HETATM   18  C   UNL     1     -23.314  -3.458 -11.104  1.00  0.00    -0.057 A 
HETATM   19  C   UNL     1     -23.464  -4.018  -9.827  1.00  0.00     0.009 A 
HETATM   20  C   UNL     1     -22.346  -4.343  -9.057  1.00  0.00     0.024 A 
HETATM   21  C   UNL     1     -21.069  -4.126  -9.569  1.00  0.00     0.034 A 
HETATM   22 CL   UNL     1     -19.689  -4.496  -8.611  1.00  0.00    -0.084 Cl
HETATM   23  C   UNL     1     -20.904  -3.609 -10.851  1.00  0.00     0.024 A 
HETATM   24  C   UNL     1     -22.024  -3.280 -11.619  1.00  0.00     0.009 A 
ENDBRANCH  17  18
ENDBRANCH  16  17
ENDBRANCH  14  16
ENDBRANCH  12  14
ENDBRANCH   8  12
BRANCH   6  25
HETATM   25  O   UNL     1     -22.818  -7.724 -19.733  1.00  0.00    -0.358 OA
HETATM   26  H   UNL     1     -22.943  -7.979 -20.660  1.00  0.00     0.217 HD
ENDBRANCH   6  25
BRANCH   1  27
HETATM   27  O   UNL     1     -24.798  -6.920 -21.435  1.00  0.00    -0.358 OA
HETATM   28  H   UNL     1     -24.170  -6.216 -21.657  1.00  0.00     0.217 HD
ENDBRANCH   1  27
TORSDOF 7
BEGIN_RES TYR D 554
REMARK  3 active torsions:
REMARK  status: ('A' for Active; 'I' for Inactive)
REMARK    1  A    between atoms: CA   and  CB  
REMARK    2  A    between atoms: CB   and  CG  
REMARK    3  A    between atoms: CZ   and  OH  
ROOT
ATOM      1  CA  TYR D 554     -27.084  -0.474 -11.738  1.00 32.65     0.164 C 
ENDROOT
BRANCH   1   2
ATOM      2  CB  TYR D 554     -28.348  -1.088 -11.169  1.00 32.65     0.058 C 
BRANCH   2   3
ATOM      3  CG  TYR D 554     -29.305  -1.495 -12.236  1.00 32.65    -0.020 A 
ATOM      4  CD1 TYR D 554     -30.484  -0.833 -12.430  1.00 32.65    -0.002 A 
ATOM      5  CE1 TYR D 554     -31.352  -1.233 -13.367  1.00 32.65     0.024 A 
ATOM      6  CZ  TYR D 554     -31.056  -2.319 -14.123  1.00 32.65     0.089 A 
ATOM      7  CE2 TYR D 554     -29.901  -2.989 -13.937  1.00 32.65     0.024 A 
ATOM      8  CD2 TYR D 554     -29.047  -2.582 -13.011  1.00 32.65    -0.002 A 
BRANCH   6   9
ATOM      9  OH  TYR D 554     -31.890  -2.765 -15.089  1.00 32.65    -0.359 OA
ATOM     10  HH  TYR D 554     -31.467  -3.335 -15.519  1.00 32.65     0.217 HD
ENDBRANCH   6   9
ENDBRANCH   2   3
ENDBRANCH   1   2
END_RES TYR D 554
BEGIN_RES ARG D 557
REMARK  4 active torsions:
REMARK  status: ('A' for Active; 'I' for Inactive)
REMARK    4  A    between atoms: CA   and  CB  
REMARK    5  A    between atoms: CB   and  CG  
REMARK    6  A    between atoms: CG   and  CD  
REMARK    7  A    between atoms: CD   and  NE  
REMARK       I    between atoms: NE   and  CZ  
REMARK       I    between atoms: CZ   and  NH1 
REMARK       I    between atoms: CZ   and  NH2 
ROOT
ATOM     11  CA  ARG D 557     -26.217   2.705 -17.014  1.00 35.49     0.159 C 
ENDROOT
BRANCH  11  12
ATOM     12  CB  ARG D 557     -26.789   1.319 -17.183  1.00 35.49     0.034 C 
BRANCH  12  13
ATOM     13  CG  ARG D 557     -25.948   0.199 -16.743  1.00 35.49     0.027 C 
BRANCH  13  14
ATOM     14  CD  ARG D 557     -26.677  -0.743 -15.863  1.00 35.49     0.116 C 
BRANCH  14  15
ATOM     15  NE  ARG D 557     -27.678  -1.489 -16.579  1.00 35.49    -0.212 N 
ATOM     16  CZ  ARG D 557     -28.946  -1.160 -16.694  1.00 35.49     0.666 C 
ATOM     17  NH1 ARG D 557     -29.451  -0.078 -16.131  1.00 35.49    -0.235 N 
ATOM     18  NH2 ARG D 557     -29.708  -1.944 -17.399  1.00 35.49    -0.235 N 
ATOM     19  HH  ARG D 557     -28.967   0.454 -15.664  1.00 35.49     0.174 HD
ATOM     20  HH  ARG D 557     -30.284   0.088 -16.243  1.00 35.49     0.174 HD
ATOM     21  HH  ARG D 557     -29.352  -2.632 -17.757  1.00 35.49     0.174 HD
ATOM     22  HH  ARG D 557     -30.530  -1.762 -17.499  1.00 35.49     0.174 HD
ATOM     23  HE  ARG D 557     -27.456  -2.239 -16.912  1.00 35.49     0.178 HD
ENDBRANCH  14  15
ENDBRANCH  13  14
ENDBRANCH  12  13
ENDBRANCH  11  12
END_RES ARG D 557
BEGIN_RES GLU D 570
REMARK  3 active torsions:
REMARK  status: ('A' for Active; 'I' for Inactive)
REMARK    8  A    between atoms: CA   and  CB  
REMARK    9  A    between atoms: CB   and  CG  
REMARK   10  A    between atoms: CG   and  CD  
ROOT
ATOM     24  CA  GLU D 570     -18.033  -6.348 -13.375  1.00 32.92     0.160 C 
ENDROOT
BRANCH  24  25
ATOM     25  CB  GLU D 570     -19.500  -6.345 -13.794  1.00 32.92     0.043 C 
BRANCH  25  26
ATOM     26  CG  GLU D 570     -20.083  -7.632 -14.254  1.00 32.92     0.100 C 
BRANCH  26  27
ATOM     27  CD  GLU D 570     -20.486  -7.609 -15.710  1.00 32.92     0.185 C 
ATOM     28  OE1 GLU D 570     -20.834  -8.672 -16.258  1.00 32.92    -0.647 OA
ATOM     29  OE2 GLU D 570     -20.437  -6.519 -16.313  1.00 32.92    -0.647 OA
ENDBRANCH  26  27
ENDBRANCH  25  26
ENDBRANCH  24  25
END_RES GLU D 570
ENDMDL
MODEL 7
REMARK VINA RESULT:      -7.9      1.643      2.146
REMARK  7 active torsions:
REMARK  status: ('A' for Active; 'I' for Inactive)
REMARK    1  A    between atoms: O_1  and  C_2 
REMARK    2  A    between atoms: C_7  and  O_8 
REMARK    3  A    between atoms: N_10  and  C_11 
REMARK    4  A    between atoms: C_11  and  N_13 
REMARK    5  A    between atoms: N_13  and  C_14 
REMARK    6  A    between atoms: C_14  and  C_15 
REMARK    7  A    between atoms: C_15  and  C_16 
ROOT
HETATM    1  C   UNL     1     -23.195  -4.354 -10.570  1.00  0.00     0.099 A 
HETATM    2  C   UNL     1     -21.818  -4.176 -10.444  1.00  0.00     0.047 A 
HETATM    3  C   UNL     1     -21.236  -4.011  -9.176  1.00  0.00    -0.047 A 
HETATM    4  C   UNL     1     -22.054  -4.011  -8.023  1.00  0.00    -0.031 A 
HETATM    5  C   UNL     1     -23.443  -4.194  -8.171  1.00  0.00     0.048 A 
HETATM    6  C   UNL     1     -24.005  -4.363  -9.436  1.00  0.00     0.099 A 
HETATM    7  C   UNL     1     -21.458  -3.826  -6.645  1.00  0.00     0.164 C 
HETATM    8  N   UNL     1     -20.604  -4.969  -6.269  1.00  0.00    -0.354 N 
HETATM    9  C   UNL     1     -19.226  -4.907  -6.777  1.00  0.00     0.126 C 
HETATM   10  C   UNL     1     -19.106  -5.036  -8.298  1.00  0.00     0.025 C 
HETATM   11  C   UNL     1     -19.738  -3.868  -9.061  1.00  0.00     0.041 C 
ENDROOT
BRANCH   8  12
HETATM   12  C   UNL     1     -21.079  -5.986  -5.430  1.00  0.00     0.170 C 
HETATM   13  S   UNL     1     -21.223  -7.596  -5.908  1.00  0.00    -0.041 SA
BRANCH  12  14
HETATM   14  N   UNL     1     -21.406  -5.559  -4.148  1.00  0.00    -0.367 N 
HETATM   15  H   UNL     1     -20.670  -5.078  -3.655  1.00  0.00     0.161 HD
BRANCH  14  16
HETATM   16  C   UNL     1     -22.346  -6.290  -3.289  1.00  0.00     0.126 C 
BRANCH  16  17
HETATM   17  C   UNL     1     -22.085  -6.161  -1.785  1.00  0.00     0.058 C 
BRANCH  17  18
HETATM   18  C   UNL     1     -21.760  -7.464  -1.095  1.00  0.00    -0.057 A 
HETATM   19  C   UNL     1     -20.934  -8.416  -1.712  1.00  0.00     0.009 A 
HETATM   20  C   UNL     1     -20.661  -9.633  -1.084  1.00  0.00     0.024 A 
HETATM   21  C   UNL     1     -21.199  -9.897   0.172  1.00  0.00     0.034 A 
HETATM   22 CL   UNL     1     -20.891 -11.408   0.935  1.00  0.00    -0.084 Cl
HETATM   23  C   UNL     1     -21.987  -8.946   0.814  1.00  0.00     0.024 A 
HETATM   24  C   UNL     1     -22.263  -7.730   0.184  1.00  0.00     0.009 A 
ENDBRANCH  17  18
ENDBRANCH  16  17
ENDBRANCH  14  16
ENDBRANCH  12  14
ENDBRANCH   8  12
BRANCH   6  25
HETATM   25  O   UNL     1     -25.352  -4.547  -9.581  1.00  0.00    -0.358 OA
HETATM   26  H   UNL     1     -25.700  -4.967  -8.779  1.00  0.00     0.217 HD
ENDBRANCH   6  25
BRANCH   1  27
HETATM   27  O   UNL     1     -23.759  -4.536 -11.801  1.00  0.00    -0.358 OA
HETATM   28  H   UNL     1     -24.234  -3.731 -12.056  1.00  0.00     0.217 HD
ENDBRANCH   1  27
TORSDOF 7
BEGIN_RES TYR D 554
REMARK  3 active torsions:
REMARK  status: ('A' for Active; 'I' for Inactive)
REMARK    1  A    between atoms: CA   and  CB  
REMARK    2  A    between atoms: CB   and  CG  
REMARK    3  A    between atoms: CZ   and  OH  
ROOT
ATOM      1  CA  TYR D 554     -27.084  -0.474 -11.738  1.00 32.65     0.164 C 
ENDROOT
BRANCH   1   2
ATOM      2  CB  TYR D 554     -28.348  -1.088 -11.169  1.00 32.65     0.058 C 
BRANCH   2   3
ATOM      3  CG  TYR D 554     -29.101  -1.869 -12.189  1.00 32.65    -0.020 A 
ATOM      4  CD1 TYR D 554     -30.467  -1.862 -12.231  1.00 32.65    -0.002 A 
ATOM      5  CE1 TYR D 554     -31.132  -2.600 -13.128  1.00 32.65     0.024 A 
ATOM      6  CZ  TYR D 554     -30.434  -3.372 -13.998  1.00 32.65     0.089 A 
ATOM      7  CE2 TYR D 554     -29.087  -3.398 -13.963  1.00 32.65     0.024 A 
ATOM      8  CD2 TYR D 554     -28.439  -2.661 -13.074  1.00 32.65    -0.002 A 
BRANCH   6   9
ATOM      9  OH  TYR D 554     -31.052  -4.132 -14.931  1.00 32.65    -0.359 OA
ATOM     10  HH  TYR D 554     -31.239  -4.851 -14.560  1.00 32.65     0.217 HD
ENDBRANCH   6   9
ENDBRANCH   2   3
ENDBRANCH   1   2
END_RES TYR D 554
BEGIN_RES ARG D 557
REMARK  4 active torsions:
REMARK  status: ('A' for Active; 'I' for Inactive)
REMARK    4  A    between atoms: CA   and  CB  
REMARK    5  A    between atoms: CB   and  CG  
REMARK    6  A    between atoms: CG   and  CD  
REMARK    7  A    between atoms: CD   and  NE  
REMARK       I    between atoms: NE   and  CZ  
REMARK       I    between atoms: CZ   and  NH1 
REMARK       I    between atoms: CZ   and  NH2 
ROOT
ATOM     11  CA  ARG D 557     -26.217   2.705 -17.014  1.00 35.49     0.159 C 
ENDROOT
BRANCH  11  12
ATOM     12  CB  ARG D 557     -26.789   1.319 -17.183  1.00 35.49     0.034 C 
BRANCH  12  13
ATOM     13  CG  ARG D 557     -26.027   0.213 -16.590  1.00 35.49     0.027 C 
BRANCH  13  14
ATOM     14  CD  ARG D 557     -26.890  -0.932 -16.219  1.00 35.49     0.116 C 
BRANCH  14  15
ATOM     15  NE  ARG D 557     -28.221  -0.515 -15.864  1.00 35.49    -0.212 N 
ATOM     16  CZ  ARG D 557     -29.336  -0.981 -16.381  1.00 35.49     0.666 C 
ATOM     17  NH1 ARG D 557     -29.348  -1.905 -17.325  1.00 35.49    -0.235 N 
ATOM     18  NH2 ARG D 557     -30.456  -0.503 -15.923  1.00 35.49    -0.235 N 
ATOM     19  HH  ARG D 557     -28.623  -2.235 -17.639  1.00 35.49     0.174 HD
ATOM     20  HH  ARG D 557     -30.106  -2.172 -17.622  1.00 35.49     0.174 HD
ATOM     21  HH  ARG D 557     -30.418   0.087 -15.309  1.00 35.49     0.174 HD
ATOM     22  HH  ARG D 557     -31.196  -0.782 -16.229  1.00 35.49     0.174 HD
ATOM     23  HE  ARG D 557     -28.305   0.129 -15.315  1.00 35.49     0.178 HD
ENDBRANCH  14  15
ENDBRANCH  13  14
ENDBRANCH  12  13
ENDBRANCH  11  12
END_RES ARG D 557
BEGIN_RES GLU D 570
REMARK  3 active torsions:
REMARK  status: ('A' for Active; 'I' for Inactive)
REMARK    8  A    between atoms: CA   and  CB  
REMARK    9  A    between atoms: CB   and  CG  
REMARK   10  A    between atoms: CG   and  CD  
ROOT
ATOM     24  CA  GLU D 570     -18.033  -6.348 -13.375  1.00 32.92     0.160 C 
ENDROOT
BRANCH  24  25
ATOM     25  CB  GLU D 570     -19.500  -6.345 -13.794  1.00 32.92     0.043 C 
BRANCH  25  26
ATOM     26  CG  GLU D 570     -20.101  -7.644 -14.192  1.00 32.92     0.100 C 
BRANCH  26  27
ATOM     27  CD  GLU D 570     -21.045  -7.522 -15.365  1.00 32.92     0.185 C 
ATOM     28  OE1 GLU D 570     -20.877  -8.259 -16.356  1.00 32.92    -0.647 OA
ATOM     29  OE2 GLU D 570     -21.952  -6.669 -15.300  1.00 32.92    -0.647 OA
ENDBRANCH  26  27
ENDBRANCH  25  26
ENDBRANCH  24  25
END_RES GLU D 570
ENDMDL
MODEL 8
REMARK VINA RESULT:      -7.7      4.842      6.917
REMARK  7 active torsions:
REMARK  status: ('A' for Active; 'I' for Inactive)
REMARK    1  A    between atoms: O_1  and  C_2 
REMARK    2  A    between atoms: C_7  and  O_8 
REMARK    3  A    between atoms: N_10  and  C_11 
REMARK    4  A    between atoms: C_11  and  N_13 
REMARK    5  A    between atoms: N_13  and  C_14 
REMARK    6  A    between atoms: C_14  and  C_15 
REMARK    7  A    between atoms: C_15  and  C_16 
ROOT
HETATM    1  C   UNL     1     -13.737 -13.180  -4.244  1.00  0.00     0.099 A 
HETATM    2  C   UNL     1     -14.381 -12.733  -3.092  1.00  0.00     0.047 A 
HETATM    3  C   UNL     1     -15.191 -11.585  -3.130  1.00  0.00    -0.047 A 
HETATM    4  C   UNL     1     -15.341 -10.872  -4.341  1.00  0.00    -0.031 A 
HETATM    5  C   UNL     1     -14.684 -11.341  -5.495  1.00  0.00     0.048 A 
HETATM    6  C   UNL     1     -13.888 -12.485  -5.443  1.00  0.00     0.099 A 
HETATM    7  C   UNL     1     -16.198  -9.627  -4.412  1.00  0.00     0.164 C 
HETATM    8  N   UNL     1     -17.624  -9.942  -4.200  1.00  0.00    -0.354 N 
HETATM    9  C   UNL     1     -18.036 -10.040  -2.794  1.00  0.00     0.126 C 
HETATM   10  C   UNL     1     -17.437 -11.230  -2.040  1.00  0.00     0.025 C 
HETATM   11  C   UNL     1     -15.916 -11.148  -1.880  1.00  0.00     0.041 C 
ENDROOT
BRANCH   8  12
HETATM   12  C   UNL     1     -18.509 -10.062  -5.281  1.00  0.00     0.170 C 
HETATM   13  S   UNL     1     -18.841 -11.522  -6.056  1.00  0.00    -0.041 SA
BRANCH  12  14
HETATM   14  N   UNL     1     -19.116  -8.868  -5.654  1.00  0.00    -0.367 N 
HETATM   15  H   UNL     1     -18.502  -8.069  -5.691  1.00  0.00     0.161 HD
BRANCH  14  16
HETATM   16  C   UNL     1     -20.512  -8.555  -5.325  1.00  0.00     0.126 C 
BRANCH  16  17
HETATM   17  C   UNL     1     -20.720  -7.250  -4.551  1.00  0.00     0.058 C 
BRANCH  17  18
HETATM   18  C   UNL     1     -21.298  -7.432  -3.168  1.00  0.00    -0.057 A 
HETATM   19  C   UNL     1     -21.329  -8.698  -2.564  1.00  0.00     0.009 A 
HETATM   20  C   UNL     1     -21.893  -8.867  -1.298  1.00  0.00     0.024 A 
HETATM   21  C   UNL     1     -22.414  -7.768  -0.622  1.00  0.00     0.034 A 
HETATM   22 CL   UNL     1     -23.138  -7.978   0.924  1.00  0.00    -0.084 Cl
HETATM   23  C   UNL     1     -22.354  -6.499  -1.191  1.00  0.00     0.024 A 
HETATM   24  C   UNL     1     -21.793  -6.330  -2.459  1.00  0.00     0.009 A 
ENDBRANCH  17  18
ENDBRANCH  16  17
ENDBRANCH  14  16
ENDBRANCH  12  14
ENDBRANCH   8  12
BRANCH   6  25
HETATM   25  O   UNL     1     -13.256 -12.945  -6.564  1.00  0.00    -0.358 OA
HETATM   26  H   UNL     1     -12.496 -12.374  -6.754  1.00  0.00     0.217 HD
ENDBRANCH   6  25
BRANCH   1  27
HETATM   27  O   UNL     1     -12.968 -14.308  -4.214  1.00  0.00    -0.358 OA
HETATM   28  H   UNL     1     -13.542 -15.083  -4.121  1.00  0.00     0.217 HD
ENDBRANCH   1  27
TORSDOF 7
BEGIN_RES TYR D 554
REMARK  3 active torsions:
REMARK  status: ('A' for Active; 'I' for Inactive)
REMARK    1  A    between atoms: CA   and  CB  
REMARK    2  A    between atoms: CB   and  CG  
REMARK    3  A    between atoms: CZ   and  OH  
ROOT
ATOM      1  CA  TYR D 554     -27.084  -0.474 -11.738  1.00 32.65     0.164 C 
ENDROOT
BRANCH   1   2
ATOM      2  CB  TYR D 554     -28.348  -1.088 -11.169  1.00 32.65     0.058 C 
BRANCH   2   3
ATOM      3  CG  TYR D 554     -29.372  -1.341 -12.221  1.00 32.65    -0.020 A 
ATOM      4  CD1 TYR D 554     -30.588  -0.718 -12.201  1.00 32.65    -0.002 A 
ATOM      5  CE1 TYR D 554     -31.513  -0.984 -13.130  1.00 32.65     0.024 A 
ATOM      6  CZ  TYR D 554     -31.238  -1.896 -14.095  1.00 32.65     0.089 A 
ATOM      7  CE2 TYR D 554     -30.048  -2.527 -14.124  1.00 32.65     0.024 A 
ATOM      8  CD2 TYR D 554     -29.137  -2.252 -13.202  1.00 32.65    -0.002 A 
BRANCH   6   9
ATOM      9  OH  TYR D 554     -32.131  -2.199 -15.065  1.00 32.65    -0.359 OA
ATOM     10  HH  TYR D 554     -32.835  -2.409 -14.677  1.00 32.65     0.217 HD
ENDBRANCH   6   9
ENDBRANCH   2   3
ENDBRANCH   1   2
END_RES TYR D 554
BEGIN_RES ARG D 557
REMARK  4 active torsions:
REMARK  status: ('A' for Active; 'I' for Inactive)
REMARK    4  A    between atoms: CA   and  CB  
REMARK    5  A    between atoms: CB   and  CG  
REMARK    6  A    between atoms: CG   and  CD  
REMARK    7  A    between atoms: CD   and  NE  
REMARK       I    between atoms: NE   and  CZ  
REMARK       I    between atoms: CZ   and  NH1 
REMARK       I    between atoms: CZ   and  NH2 
ROOT
ATOM     11  CA  ARG D 557     -26.217   2.705 -17.014  1.00 35.49     0.159 C 
ENDROOT
BRANCH  11  12
ATOM     12  CB  ARG D 557     -26.789   1.319 -17.183  1.00 35.49     0.034 C 
BRANCH  12  13
ATOM     13  CG  ARG D 557     -25.842   0.200 -17.109  1.00 35.49     0.027 C 
BRANCH  13  14
ATOM     14  CD  ARG D 557     -24.764   0.437 -16.122  1.00 35.49     0.116 C 
BRANCH  14  15
ATOM     15  NE  ARG D 557     -24.886  -0.420 -14.971  1.00 35.49    -0.212 N 
ATOM     16  CZ  ARG D 557     -24.069  -1.399 -14.653  1.00 35.49     0.666 C 
ATOM     17  NH1 ARG D 557     -23.023  -1.718 -15.392  1.00 35.49    -0.235 N 
ATOM     18  NH2 ARG D 557     -24.320  -2.059 -13.560  1.00 35.49    -0.235 N 
ATOM     19  HH  ARG D 557     -22.837  -1.296 -16.114  1.00 35.49     0.174 HD
ATOM     20  HH  ARG D 557     -22.524  -2.365 -15.133  1.00 35.49     0.174 HD
ATOM     21  HH  ARG D 557     -24.999  -1.826 -13.099  1.00 35.49     0.174 HD
ATOM     22  HH  ARG D 557     -23.814  -2.695 -13.320  1.00 35.49     0.174 HD
ATOM     23  HE  ARG D 557     -25.573  -0.331 -14.478  1.00 35.49     0.178 HD
ENDBRANCH  14  15
ENDBRANCH  13  14
ENDBRANCH  12  13
ENDBRANCH  11  12
END_RES ARG D 557
BEGIN_RES GLU D 570
REMARK  3 active torsions:
REMARK  status: ('A' for Active; 'I' for Inactive)
REMARK    8  A    between atoms: CA   and  CB  
REMARK    9  A    between atoms: CB   and  CG  
REMARK   10  A    between atoms: CG   and  CD  
ROOT
ATOM     24  CA  GLU D 570     -18.033  -6.348 -13.375  1.00 32.92     0.160 C 
ENDROOT
BRANCH  24  25
ATOM     25  CB  GLU D 570     -19.500  -6.345 -13.794  1.00 32.92     0.043 C 
BRANCH  25  26
ATOM     26  CG  GLU D 570     -20.453  -5.583 -12.946  1.00 32.92     0.100 C 
BRANCH  26  27
ATOM     27  CD  GLU D 570     -21.729  -5.224 -13.670  1.00 32.92     0.185 C 
ATOM     28  OE1 GLU D 570     -22.266  -6.073 -14.407  1.00 32.92    -0.647 OA
ATOM     29  OE2 GLU D 570     -22.188  -4.075 -13.512  1.00 32.92    -0.647 OA
ENDBRANCH  26  27
ENDBRANCH  25  26
ENDBRANCH  24  25
END_RES GLU D 570
ENDMDL
MODEL 9
REMARK VINA RESULT:      -7.6      3.848      5.986
REMARK  7 active torsions:
REMARK  status: ('A' for Active; 'I' for Inactive)
REMARK    1  A    between atoms: O_1  and  C_2 
REMARK    2  A    between atoms: C_7  and  O_8 
REMARK    3  A    between atoms: N_10  and  C_11 
REMARK    4  A    between atoms: C_11  and  N_13 
REMARK    5  A    between atoms: N_13  and  C_14 
REMARK    6  A    between atoms: C_14  and  C_15 
REMARK    7  A    between atoms: C_15  and  C_16 
ROOT
HETATM    1  C   UNL     1     -21.178  -6.507  -4.060  1.00  0.00     0.099 A 
HETATM    2  C   UNL     1     -21.509  -6.471  -2.706  1.00  0.00     0.047 A 
HETATM    3  C   UNL     1     -21.836  -7.655  -2.023  1.00  0.00    -0.047 A 
HETATM    4  C   UNL     1     -21.843  -8.887  -2.716  1.00  0.00    -0.031 A 
HETATM    5  C   UNL     1     -21.503  -8.902  -4.083  1.00  0.00     0.048 A 
HETATM    6  C   UNL     1     -21.175  -7.720  -4.747  1.00  0.00     0.099 A 
HETATM    7  C   UNL     1     -22.200 -10.176  -2.011  1.00  0.00     0.164 C 
HETATM    8  N   UNL     1     -21.188 -10.535  -1.000  1.00  0.00    -0.354 N 
HETATM    9  C   UNL     1     -21.353  -9.879   0.304  1.00  0.00     0.126 C 
HETATM   10  C   UNL     1     -21.115  -8.367   0.286  1.00  0.00     0.025 C 
HETATM   11  C   UNL     1     -22.145  -7.597  -0.547  1.00  0.00     0.041 C 
ENDROOT
BRANCH   8  12
HETATM   12  C   UNL     1     -20.197 -11.490  -1.270  1.00  0.00     0.170 C 
HETATM   13  S   UNL     1     -20.053 -12.946  -0.433  1.00  0.00    -0.041 SA
BRANCH  12  14
HETATM   14  N   UNL     1     -19.344 -11.143  -2.312  1.00  0.00    -0.367 N 
HETATM   15  H   UNL     1     -19.075 -11.904  -2.916  1.00  0.00     0.161 HD
BRANCH  14  16
HETATM   16  C   UNL     1     -18.347 -10.072  -2.192  1.00  0.00     0.126 C 
BRANCH  16  17
HETATM   17  C   UNL     1     -17.876  -9.474  -3.521  1.00  0.00     0.058 C 
BRANCH  17  18
HETATM   18  C   UNL     1     -16.739 -10.224  -4.172  1.00  0.00    -0.057 A 
HETATM   19  C   UNL     1     -16.537 -10.161  -5.560  1.00  0.00     0.009 A 
HETATM   20  C   UNL     1     -15.504 -10.881  -6.161  1.00  0.00     0.024 A 
HETATM   21  C   UNL     1     -14.654 -11.655  -5.376  1.00  0.00     0.034 A 
HETATM   22 CL   UNL     1     -13.399 -12.568  -6.117  1.00  0.00    -0.084 Cl
HETATM   23  C   UNL     1     -14.816 -11.696  -3.994  1.00  0.00     0.024 A 
HETATM   24  C   UNL     1     -15.853 -10.978  -3.392  1.00  0.00     0.009 A 
ENDBRANCH  17  18
ENDBRANCH  16  17
ENDBRANCH  14  16
ENDBRANCH  12  14
ENDBRANCH   8  12
BRANCH   6  25
HETATM   25  O   UNL     1     -20.838  -7.735  -6.071  1.00  0.00    -0.358 OA
HETATM   26  H   UNL     1     -21.649  -7.750  -6.602  1.00  0.00     0.217 HD
ENDBRANCH   6  25
BRANCH   1  27
HETATM   27  O   UNL     1     -20.838  -5.360  -4.720  1.00  0.00    -0.358 OA
HETATM   28  H   UNL     1     -21.452  -4.654  -4.468  1.00  0.00     0.217 HD
ENDBRANCH   1  27
TORSDOF 7
BEGIN_RES TYR D 554
REMARK  3 active torsions:
REMARK  status: ('A' for Active; 'I' for Inactive)
REMARK    1  A    between atoms: CA   and  CB  
REMARK    2  A    between atoms: CB   and  CG  
REMARK    3  A    between atoms: CZ   and  OH  
ROOT
ATOM      1  CA  TYR D 554     -27.084  -0.474 -11.738  1.00 32.65     0.164 C 
ENDROOT
BRANCH   1   2
ATOM      2  CB  TYR D 554     -28.348  -1.088 -11.169  1.00 32.65     0.058 C 
BRANCH   2   3
ATOM      3  CG  TYR D 554     -29.366  -1.355 -12.223  1.00 32.65    -0.020 A 
ATOM      4  CD1 TYR D 554     -30.565  -0.700 -12.243  1.00 32.65    -0.002 A 
ATOM      5  CE1 TYR D 554     -31.486  -0.978 -13.172  1.00 32.65     0.024 A 
ATOM      6  CZ  TYR D 554     -31.225  -1.934 -14.098  1.00 32.65     0.089 A 
ATOM      7  CE2 TYR D 554     -30.051  -2.597 -14.086  1.00 32.65     0.024 A 
ATOM      8  CD2 TYR D 554     -29.145  -2.310 -13.165  1.00 32.65    -0.002 A 
BRANCH   6   9
ATOM      9  OH  TYR D 554     -32.114  -2.252 -15.066  1.00 32.65    -0.359 OA
ATOM     10  HH  TYR D 554     -32.282  -1.547 -15.470  1.00 32.65     0.217 HD
ENDBRANCH   6   9
ENDBRANCH   2   3
ENDBRANCH   1   2
END_RES TYR D 554
BEGIN_RES ARG D 557
REMARK  4 active torsions:
REMARK  status: ('A' for Active; 'I' for Inactive)
REMARK    4  A    between atoms: CA   and  CB  
REMARK    5  A    between atoms: CB   and  CG  
REMARK    6  A    between atoms: CG   and  CD  
REMARK    7  A    between atoms: CD   and  NE  
REMARK       I    between atoms: NE   and  CZ  
REMARK       I    between atoms: CZ   and  NH1 
REMARK       I    between atoms: CZ   and  NH2 
ROOT
ATOM     11  CA  ARG D 557     -26.217   2.705 -17.014  1.00 35.49     0.159 C 
ENDROOT
BRANCH  11  12
ATOM     12  CB  ARG D 557     -26.789   1.319 -17.183  1.00 35.49     0.034 C 
BRANCH  12  13
ATOM     13  CG  ARG D 557     -25.836   0.203 -17.153  1.00 35.49     0.027 C 
BRANCH  13  14
ATOM     14  CD  ARG D 557     -24.759   0.407 -16.158  1.00 35.49     0.116 C 
BRANCH  14  15
ATOM     15  NE  ARG D 557     -24.914  -0.446 -15.009  1.00 35.49    -0.212 N 
ATOM     16  CZ  ARG D 557     -24.104  -1.421 -14.661  1.00 35.49     0.666 C 
ATOM     17  NH1 ARG D 557     -23.032  -1.737 -15.364  1.00 35.49    -0.235 N 
ATOM     18  NH2 ARG D 557     -24.388  -2.078 -13.574  1.00 35.49    -0.235 N 
ATOM     19  HH  ARG D 557     -22.825  -1.317 -16.081  1.00 35.49     0.174 HD
ATOM     20  HH  ARG D 557     -22.539  -2.381 -15.087  1.00 35.49     0.174 HD
ATOM     21  HH  ARG D 557     -25.082  -1.846 -13.136  1.00 35.49     0.174 HD
ATOM     22  HH  ARG D 557     -23.886  -2.711 -13.315  1.00 35.49     0.174 HD
ATOM     23  HE  ARG D 557     -25.617  -0.359 -14.539  1.00 35.49     0.178 HD
ENDBRANCH  14  15
ENDBRANCH  13  14
ENDBRANCH  12  13
ENDBRANCH  11  12
END_RES ARG D 557
BEGIN_RES GLU D 570
REMARK  3 active torsions:
REMARK  status: ('A' for Active; 'I' for Inactive)
REMARK    8  A    between atoms: CA   and  CB  
REMARK    9  A    between atoms: CB   and  CG  
REMARK   10  A    between atoms: CG   and  CD  
ROOT
ATOM     24  CA  GLU D 570     -18.033  -6.348 -13.375  1.00 32.92     0.160 C 
ENDROOT
BRANCH  24  25
ATOM     25  CB  GLU D 570     -19.500  -6.345 -13.794  1.00 32.92     0.043 C 
BRANCH  25  26
ATOM     26  CG  GLU D 570     -20.442  -5.531 -12.983  1.00 32.92     0.100 C 
BRANCH  26  27
ATOM     27  CD  GLU D 570     -21.726  -5.214 -13.713  1.00 32.92     0.185 C 
ATOM     28  OE1 GLU D 570     -22.155  -6.020 -14.561  1.00 32.92    -0.647 OA
ATOM     29  OE2 GLU D 570     -22.302  -4.141 -13.446  1.00 32.92    -0.647 OA
ENDBRANCH  26  27
ENDBRANCH  25  26
ENDBRANCH  24  25
END_RES GLU D 570
ENDMDL
