MODEL 1
REMARK VINA RESULT:      -6.0      0.000      0.000
REMARK  10 active torsions:
REMARK  status: ('A' for Active; 'I' for Inactive)
REMARK    1  A    between atoms: C_2  and  O_3 
REMARK    2  A    between atoms: O_3  and  C_4 
REMARK    3  A    between atoms: C_4  and  C_6 
REMARK    4  A    between atoms: C_7  and  C_8 
REMARK    5  A    between atoms: C_17  and  C_18 
REMARK    6  A    between atoms: C_18  and  S_20 
REMARK    7  A    between atoms: S_20  and  C_21 
REMARK    8  A    between atoms: C_21  and  C_22 
REMARK    9  A    between atoms: C_22  and  O_23 
REMARK   10  A    between atoms: C_25  and  C_26 
ROOT
HETATM    1  C   UNL     1     -21.221  -8.627  -4.036  1.00  0.00     0.053 A 
HETATM    2  C   UNL     1     -21.505  -7.322  -3.816  1.00  0.00     0.055 A 
HETATM    3  N   UNL     1     -21.875  -6.880  -2.568  1.00  0.00    -0.358 N 
HETATM    4  C   UNL     1     -22.055  -7.685  -1.463  1.00  0.00     0.017 A 
HETATM    5  C   UNL     1     -22.464  -6.939  -0.211  1.00  0.00     0.069 C 
HETATM    6  C   UNL     1     -21.837  -9.024  -1.547  1.00  0.00     0.030 A 
HETATM    7  C   UNL     1     -21.303  -9.655  -2.867  1.00  0.00     0.066 A 
HETATM    8  H   UNL     1     -22.034  -5.881  -2.469  1.00  0.00     0.166 HD
ENDROOT
BRANCH   6   9
HETATM    9  C   UNL     1     -22.169  -9.861  -0.333  1.00  0.00     0.217 C 
HETATM   10  O   UNL     1     -23.302 -10.266  -0.102  1.00  0.00    -0.280 OA
BRANCH   9  11
HETATM   11  S   UNL     1     -20.875 -10.230   0.788  1.00  0.00    -0.085 SA
BRANCH  11  12
HETATM   12  C   UNL     1     -20.204 -11.761   0.022  1.00  0.00     0.108 C 
BRANCH  12  13
HETATM   13  C   UNL     1     -18.699 -12.054   0.137  1.00  0.00     0.177 C 
BRANCH  13  14
HETATM   14  O   UNL     1     -18.044 -11.991  -1.131  1.00  0.00    -0.395 OA
HETATM   15  C   UNL     1     -16.655 -11.701  -0.980  1.00  0.00     0.201 C 
ENDBRANCH  13  14
ENDBRANCH  12  13
ENDBRANCH  11  12
ENDBRANCH   9  11
ENDBRANCH   6   9
BRANCH   7  16
HETATM   16  C   UNL     1     -21.996 -10.989  -3.249  1.00  0.00     0.010 C 
HETATM   17  C   UNL     1     -21.074 -12.156  -3.548  1.00  0.00     0.006 C 
ENDBRANCH   7  16
BRANCH   1  18
HETATM   18  C   UNL     1     -20.735  -9.038  -5.391  1.00  0.00     0.292 C 
HETATM   19  O   UNL     1     -21.425  -9.540  -6.264  1.00  0.00    -0.259 OA
BRANCH  18  20
HETATM   20  O   UNL     1     -19.414  -8.789  -5.521  1.00  0.00    -0.318 OA
BRANCH  20  21
HETATM   21  C   UNL     1     -18.496  -9.870  -5.320  1.00  0.00     0.174 C 
HETATM   22  C   UNL     1     -17.703  -9.712  -4.030  1.00  0.00     0.034 C 
ENDBRANCH  20  21
ENDBRANCH  18  20
ENDBRANCH   1  18
BRANCH   2  23
HETATM   23  C   UNL     1     -21.418  -6.257  -4.836  1.00  0.00    -0.009 A 
HETATM   24  C   UNL     1     -22.493  -6.031  -5.703  1.00  0.00     0.014 A 
HETATM   25  C   UNL     1     -22.409  -5.038  -6.683  1.00  0.00     0.001 A 
HETATM   26  C   UNL     1     -21.252  -4.269  -6.804  1.00  0.00     0.000 A 
HETATM   27  C   UNL     1     -20.183  -4.478  -5.935  1.00  0.00     0.001 A 
HETATM   28  C   UNL     1     -20.269  -5.461  -4.944  1.00  0.00     0.014 A 
ENDBRANCH   2  23
TORSDOF 10
ENDMDL
MODEL 2
REMARK VINA RESULT:      -6.0      2.853      5.270
REMARK  10 active torsions:
REMARK  status: ('A' for Active; 'I' for Inactive)
REMARK    1  A    between atoms: C_2  and  O_3 
REMARK    2  A    between atoms: O_3  and  C_4 
REMARK    3  A    between atoms: C_4  and  C_6 
REMARK    4  A    between atoms: C_7  and  C_8 
REMARK    5  A    between atoms: C_17  and  C_18 
REMARK    6  A    between atoms: C_18  and  S_20 
REMARK    7  A    between atoms: S_20  and  C_21 
REMARK    8  A    between atoms: C_21  and  C_22 
REMARK    9  A    between atoms: C_22  and  O_23 
REMARK   10  A    between atoms: C_25  and  C_26 
ROOT
HETATM    1  C   UNL     1     -20.028 -10.516  -1.885  1.00  0.00     0.053 A 
HETATM    2  C   UNL     1     -19.632  -9.432  -2.593  1.00  0.00     0.055 A 
HETATM    3  N   UNL     1     -18.313  -9.258  -2.942  1.00  0.00    -0.358 N 
HETATM    4  C   UNL     1     -17.280 -10.094  -2.574  1.00  0.00     0.017 A 
HETATM    5  C   UNL     1     -15.923  -9.670  -3.095  1.00  0.00     0.069 C 
HETATM    6  C   UNL     1     -17.527 -11.206  -1.832  1.00  0.00     0.030 A 
HETATM    7  C   UNL     1     -18.988 -11.596  -1.458  1.00  0.00     0.066 A 
HETATM    8  H   UNL     1     -18.097  -8.442  -3.506  1.00  0.00     0.166 HD
ENDROOT
BRANCH   6   9
HETATM    9  C   UNL     1     -16.336 -12.009  -1.364  1.00  0.00     0.217 C 
HETATM   10  O   UNL     1     -15.663 -11.685  -0.393  1.00  0.00    -0.280 OA
BRANCH   9  11
HETATM   11  S   UNL     1     -15.901 -13.440  -2.276  1.00  0.00    -0.085 SA
BRANCH  11  12
HETATM   12  C   UNL     1     -14.240 -12.946  -2.889  1.00  0.00     0.108 C 
BRANCH  12  13
HETATM   13  C   UNL     1     -13.782 -13.431  -4.274  1.00  0.00     0.177 C 
BRANCH  13  14
HETATM   14  O   UNL     1     -13.424 -12.345  -5.130  1.00  0.00    -0.395 OA
HETATM   15  C   UNL     1     -13.301 -12.775  -6.484  1.00  0.00     0.201 C 
ENDBRANCH  13  14
ENDBRANCH  12  13
ENDBRANCH  11  12
ENDBRANCH   9  11
ENDBRANCH   6   9
BRANCH   7  16
HETATM   16  C   UNL     1     -19.150 -12.083   0.005  1.00  0.00     0.010 C 
HETATM   17  C   UNL     1     -19.667 -13.498   0.181  1.00  0.00     0.006 C 
ENDBRANCH   7  16
BRANCH   1  18
HETATM   18  C   UNL     1     -21.487 -10.702  -1.610  1.00  0.00     0.292 C 
HETATM   19  O   UNL     1     -22.283 -11.238  -2.364  1.00  0.00    -0.259 OA
BRANCH  18  20
HETATM   20  O   UNL     1     -21.818 -10.184  -0.407  1.00  0.00    -0.318 OA
BRANCH  20  21
HETATM   21  C   UNL     1     -23.146  -9.677  -0.229  1.00  0.00     0.174 C 
HETATM   22  C   UNL     1     -23.148  -8.297   0.412  1.00  0.00     0.034 C 
ENDBRANCH  20  21
ENDBRANCH  18  20
ENDBRANCH   1  18
BRANCH   2  23
HETATM   23  C   UNL     1     -20.535  -8.372  -3.086  1.00  0.00    -0.009 A 
HETATM   24  C   UNL     1     -21.032  -8.430  -4.392  1.00  0.00     0.014 A 
HETATM   25  C   UNL     1     -21.871  -7.420  -4.871  1.00  0.00     0.001 A 
HETATM   26  C   UNL     1     -22.214  -6.347  -4.049  1.00  0.00     0.000 A 
HETATM   27  C   UNL     1     -21.735  -6.290  -2.742  1.00  0.00     0.001 A 
HETATM   28  C   UNL     1     -20.908  -7.306  -2.255  1.00  0.00     0.014 A 
ENDBRANCH   2  23
TORSDOF 10
ENDMDL
MODEL 3
REMARK VINA RESULT:      -5.9      3.012      5.512
REMARK  10 active torsions:
REMARK  status: ('A' for Active; 'I' for Inactive)
REMARK    1  A    between atoms: C_2  and  O_3 
REMARK    2  A    between atoms: O_3  and  C_4 
REMARK    3  A    between atoms: C_4  and  C_6 
REMARK    4  A    between atoms: C_7  and  C_8 
REMARK    5  A    between atoms: C_17  and  C_18 
REMARK    6  A    between atoms: C_18  and  S_20 
REMARK    7  A    between atoms: S_20  and  C_21 
REMARK    8  A    between atoms: C_21  and  C_22 
REMARK    9  A    between atoms: C_22  and  O_23 
REMARK   10  A    between atoms: C_25  and  C_26 
ROOT
HETATM    1  C   UNL     1     -19.901  -9.442  -4.310  1.00  0.00     0.053 A 
HETATM    2  C   UNL     1     -19.605  -9.054  -3.047  1.00  0.00     0.055 A 
HETATM    3  N   UNL     1     -18.318  -9.125  -2.569  1.00  0.00    -0.358 N 
HETATM    4  C   UNL     1     -17.242  -9.635  -3.262  1.00  0.00     0.017 A 
HETATM    5  C   UNL     1     -15.935  -9.593  -2.500  1.00  0.00     0.069 C 
HETATM    6  C   UNL     1     -17.399 -10.094  -4.532  1.00  0.00     0.030 A 
HETATM    7  C   UNL     1     -18.776  -9.972  -5.250  1.00  0.00     0.066 A 
HETATM    8  H   UNL     1     -18.165  -8.779  -1.626  1.00  0.00     0.166 HD
ENDROOT
BRANCH   6   9
HETATM    9  C   UNL     1     -16.205 -10.749  -5.189  1.00  0.00     0.217 C 
HETATM   10  O   UNL     1     -15.482 -10.158  -5.981  1.00  0.00    -0.280 OA
BRANCH   9  11
HETATM   11  S   UNL     1     -15.880 -12.428  -4.810  1.00  0.00    -0.085 SA
BRANCH  11  12
HETATM   12  C   UNL     1     -14.048 -12.381  -4.659  1.00  0.00     0.108 C 
BRANCH  12  13
HETATM   13  C   UNL     1     -13.300 -13.664  -4.259  1.00  0.00     0.177 C 
BRANCH  13  14
HETATM   14  O   UNL     1     -12.652 -13.532  -2.993  1.00  0.00    -0.395 OA
HETATM   15  C   UNL     1     -12.743 -14.740  -2.240  1.00  0.00     0.201 C 
ENDBRANCH  13  14
ENDBRANCH  12  13
ENDBRANCH  11  12
ENDBRANCH   9  11
ENDBRANCH   6   9
BRANCH   7  16
HETATM   16  C   UNL     1     -19.173 -11.235  -6.059  1.00  0.00     0.010 C 
HETATM   17  C   UNL     1     -19.629 -12.430  -5.244  1.00  0.00     0.006 C 
ENDBRANCH   7  16
BRANCH   1  18
HETATM   18  C   UNL     1     -21.299  -9.259  -4.810  1.00  0.00     0.292 C 
HETATM   19  O   UNL     1     -22.293  -9.775  -4.326  1.00  0.00    -0.259 OA
BRANCH  18  20
HETATM   20  O   UNL     1     -21.319  -8.444  -5.887  1.00  0.00    -0.318 OA
BRANCH  20  21
HETATM   21  C   UNL     1     -20.868  -7.094  -5.725  1.00  0.00     0.174 C 
HETATM   22  C   UNL     1     -22.028  -6.120  -5.575  1.00  0.00     0.034 C 
ENDBRANCH  20  21
ENDBRANCH  18  20
ENDBRANCH   1  18
BRANCH   2  23
HETATM   23  C   UNL     1     -20.580  -8.497  -2.087  1.00  0.00    -0.009 A 
HETATM   24  C   UNL     1     -21.049  -9.286  -1.031  1.00  0.00     0.014 A 
HETATM   25  C   UNL     1     -21.986  -8.771  -0.132  1.00  0.00     0.001 A 
HETATM   26  C   UNL     1     -22.461  -7.469  -0.284  1.00  0.00     0.000 A 
HETATM   27  C   UNL     1     -21.987  -6.671  -1.324  1.00  0.00     0.001 A 
HETATM   28  C   UNL     1     -21.039  -7.178  -2.218  1.00  0.00     0.014 A 
ENDBRANCH   2  23
TORSDOF 10
ENDMDL
MODEL 4
REMARK VINA RESULT:      -5.8      2.737      5.392
REMARK  10 active torsions:
REMARK  status: ('A' for Active; 'I' for Inactive)
REMARK    1  A    between atoms: C_2  and  O_3 
REMARK    2  A    between atoms: O_3  and  C_4 
REMARK    3  A    between atoms: C_4  and  C_6 
REMARK    4  A    between atoms: C_7  and  C_8 
REMARK    5  A    between atoms: C_17  and  C_18 
REMARK    6  A    between atoms: C_18  and  S_20 
REMARK    7  A    between atoms: S_20  and  C_21 
REMARK    8  A    between atoms: C_21  and  C_22 
REMARK    9  A    between atoms: C_22  and  O_23 
REMARK   10  A    between atoms: C_25  and  C_26 
ROOT
HETATM    1  C   UNL     1     -20.174 -10.853  -2.738  1.00  0.00     0.053 A 
HETATM    2  C   UNL     1     -19.736  -9.588  -2.531  1.00  0.00     0.055 A 
HETATM    3  N   UNL     1     -18.392  -9.298  -2.520  1.00  0.00    -0.358 N 
HETATM    4  C   UNL     1     -17.380 -10.226  -2.646  1.00  0.00     0.017 A 
HETATM    5  C   UNL     1     -15.987  -9.635  -2.600  1.00  0.00     0.069 C 
HETATM    6  C   UNL     1     -17.673 -11.541  -2.826  1.00  0.00     0.030 A 
HETATM    7  C   UNL     1     -19.152 -12.006  -2.975  1.00  0.00     0.066 A 
HETATM    8  H   UNL     1     -18.140  -8.321  -2.399  1.00  0.00     0.166 HD
ENDROOT
BRANCH   6   9
HETATM    9  C   UNL     1     -16.519 -12.517  -2.836  1.00  0.00     0.217 C 
HETATM   10  O   UNL     1     -15.862 -12.770  -1.833  1.00  0.00    -0.280 OA
BRANCH   9  11
HETATM   11  S   UNL     1     -16.103 -13.281  -4.356  1.00  0.00    -0.085 SA
BRANCH  11  12
HETATM   12  C   UNL     1     -15.072 -11.961  -5.115  1.00  0.00     0.108 C 
BRANCH  12  13
HETATM   13  C   UNL     1     -15.663 -11.120  -6.259  1.00  0.00     0.177 C 
BRANCH  13  14
HETATM   14  O   UNL     1     -17.091 -11.123  -6.242  1.00  0.00    -0.395 OA
HETATM   15  C   UNL     1     -17.608  -9.799  -6.120  1.00  0.00     0.201 C 
ENDBRANCH  13  14
ENDBRANCH  12  13
ENDBRANCH  11  12
ENDBRANCH   9  11
ENDBRANCH   6   9
BRANCH   7  16
HETATM   16  C   UNL     1     -19.480 -13.308  -2.198  1.00  0.00     0.010 C 
HETATM   17  C   UNL     1     -19.360 -13.229  -0.688  1.00  0.00     0.006 C 
ENDBRANCH   7  16
BRANCH   1  18
HETATM   18  C   UNL     1     -21.647 -11.098  -2.831  1.00  0.00     0.292 C 
HETATM   19  O   UNL     1     -22.310 -11.022  -3.853  1.00  0.00    -0.259 OA
BRANCH  18  20
HETATM   20  O   UNL     1     -22.158 -11.409  -1.621  1.00  0.00    -0.318 OA
BRANCH  20  21
HETATM   21  C   UNL     1     -23.571 -11.269  -1.424  1.00  0.00     0.174 C 
HETATM   22  C   UNL     1     -23.897 -10.571  -0.112  1.00  0.00     0.034 C 
ENDBRANCH  20  21
ENDBRANCH  18  20
ENDBRANCH   1  18
BRANCH   2  23
HETATM   23  C   UNL     1     -20.613  -8.414  -2.340  1.00  0.00    -0.009 A 
HETATM   24  C   UNL     1     -21.163  -8.152  -1.081  1.00  0.00     0.014 A 
HETATM   25  C   UNL     1     -22.009  -7.055  -0.898  1.00  0.00     0.001 A 
HETATM   26  C   UNL     1     -22.310  -6.216  -1.971  1.00  0.00     0.000 A 
HETATM   27  C   UNL     1     -21.753  -6.462  -3.225  1.00  0.00     0.001 A 
HETATM   28  C   UNL     1     -20.896  -7.551  -3.408  1.00  0.00     0.014 A 
ENDBRANCH   2  23
TORSDOF 10
ENDMDL
MODEL 5
REMARK VINA RESULT:      -5.7      2.679      4.976
REMARK  10 active torsions:
REMARK  status: ('A' for Active; 'I' for Inactive)
REMARK    1  A    between atoms: C_2  and  O_3 
REMARK    2  A    between atoms: O_3  and  C_4 
REMARK    3  A    between atoms: C_4  and  C_6 
REMARK    4  A    between atoms: C_7  and  C_8 
REMARK    5  A    between atoms: C_17  and  C_18 
REMARK    6  A    between atoms: C_18  and  S_20 
REMARK    7  A    between atoms: S_20  and  C_21 
REMARK    8  A    between atoms: C_21  and  C_22 
REMARK    9  A    between atoms: C_22  and  O_23 
REMARK   10  A    between atoms: C_25  and  C_26 
ROOT
HETATM    1  C   UNL     1     -19.992 -10.501  -1.836  1.00  0.00     0.053 A 
HETATM    2  C   UNL     1     -19.596  -9.421  -2.549  1.00  0.00     0.055 A 
HETATM    3  N   UNL     1     -18.274  -9.240  -2.882  1.00  0.00    -0.358 N 
HETATM    4  C   UNL     1     -17.239 -10.063  -2.493  1.00  0.00     0.017 A 
HETATM    5  C   UNL     1     -15.879  -9.633  -3.001  1.00  0.00     0.069 C 
HETATM    6  C   UNL     1     -17.487 -11.170  -1.744  1.00  0.00     0.030 A 
HETATM    7  C   UNL     1     -18.949 -11.568  -1.385  1.00  0.00     0.066 A 
HETATM    8  H   UNL     1     -18.057  -8.427  -3.452  1.00  0.00     0.166 HD
ENDROOT
BRANCH   6   9
HETATM    9  C   UNL     1     -16.295 -11.960  -1.252  1.00  0.00     0.217 C 
HETATM   10  O   UNL     1     -15.652 -11.633  -0.262  1.00  0.00    -0.280 OA
BRANCH   9  11
HETATM   11  S   UNL     1     -15.816 -13.376  -2.165  1.00  0.00    -0.085 SA
BRANCH  11  12
HETATM   12  C   UNL     1     -16.358 -14.705  -1.016  1.00  0.00     0.108 C 
BRANCH  12  13
HETATM   13  C   UNL     1     -15.428 -15.119   0.136  1.00  0.00     0.177 C 
BRANCH  13  14
HETATM   14  O   UNL     1     -16.151 -15.689   1.228  1.00  0.00    -0.395 OA
HETATM   15  C   UNL     1     -16.574 -14.685   2.147  1.00  0.00     0.201 C 
ENDBRANCH  13  14
ENDBRANCH  12  13
ENDBRANCH  11  12
ENDBRANCH   9  11
ENDBRANCH   6   9
BRANCH   7  16
HETATM   16  C   UNL     1     -19.127 -12.043   0.081  1.00  0.00     0.010 C 
HETATM   17  C   UNL     1     -19.665 -13.450   0.263  1.00  0.00     0.006 C 
ENDBRANCH   7  16
BRANCH   1  18
HETATM   18  C   UNL     1     -21.453 -10.696  -1.578  1.00  0.00     0.292 C 
HETATM   19  O   UNL     1     -22.232 -11.257  -2.332  1.00  0.00    -0.259 OA
BRANCH  18  20
HETATM   20  O   UNL     1     -21.807 -10.155  -0.392  1.00  0.00    -0.318 OA
BRANCH  20  21
HETATM   21  C   UNL     1     -23.144  -9.663  -0.243  1.00  0.00     0.174 C 
HETATM   22  C   UNL     1     -23.180  -8.321   0.474  1.00  0.00     0.034 C 
ENDBRANCH  20  21
ENDBRANCH  18  20
ENDBRANCH   1  18
BRANCH   2  23
HETATM   23  C   UNL     1     -20.501  -8.372  -3.064  1.00  0.00    -0.009 A 
HETATM   24  C   UNL     1     -20.965  -8.437  -4.382  1.00  0.00     0.014 A 
HETATM   25  C   UNL     1     -21.805  -7.438  -4.881  1.00  0.00     0.001 A 
HETATM   26  C   UNL     1     -22.183  -6.370  -4.067  1.00  0.00     0.000 A 
HETATM   27  C   UNL     1     -21.737  -6.307  -2.748  1.00  0.00     0.001 A 
HETATM   28  C   UNL     1     -20.908  -7.312  -2.242  1.00  0.00     0.014 A 
ENDBRANCH   2  23
TORSDOF 10
ENDMDL
MODEL 6
REMARK VINA RESULT:      -5.7      2.857      6.080
REMARK  10 active torsions:
REMARK  status: ('A' for Active; 'I' for Inactive)
REMARK    1  A    between atoms: C_2  and  O_3 
REMARK    2  A    between atoms: O_3  and  C_4 
REMARK    3  A    between atoms: C_4  and  C_6 
REMARK    4  A    between atoms: C_7  and  C_8 
REMARK    5  A    between atoms: C_17  and  C_18 
REMARK    6  A    between atoms: C_18  and  S_20 
REMARK    7  A    between atoms: S_20  and  C_21 
REMARK    8  A    between atoms: C_21  and  C_22 
REMARK    9  A    between atoms: C_22  and  O_23 
REMARK   10  A    between atoms: C_25  and  C_26 
ROOT
HETATM    1  C   UNL     1     -19.808  -9.765  -2.966  1.00  0.00     0.053 A 
HETATM    2  C   UNL     1     -20.124 -10.222  -1.732  1.00  0.00     0.055 A 
HETATM    3  N   UNL     1     -19.235 -10.984  -1.011  1.00  0.00    -0.358 N 
HETATM    4  C   UNL     1     -18.002 -11.403  -1.464  1.00  0.00     0.017 A 
HETATM    5  C   UNL     1     -17.222 -12.231  -0.464  1.00  0.00     0.069 C 
HETATM    6  C   UNL     1     -17.567 -11.046  -2.701  1.00  0.00     0.030 A 
HETATM    7  C   UNL     1     -18.417 -10.089  -3.590  1.00  0.00     0.066 A 
HETATM    8  H   UNL     1     -19.526 -11.258  -0.077  1.00  0.00     0.166 HD
ENDROOT
BRANCH   6   9
HETATM    9  C   UNL     1     -16.262 -11.639  -3.179  1.00  0.00     0.217 C 
HETATM   10  O   UNL     1     -15.211 -11.010  -3.173  1.00  0.00    -0.280 OA
BRANCH   9  11
HETATM   11  S   UNL     1     -16.281 -13.282  -3.787  1.00  0.00    -0.085 SA
BRANCH  11  12
HETATM   12  C   UNL     1     -15.763 -12.993  -5.528  1.00  0.00     0.108 C 
BRANCH  12  13
HETATM   13  C   UNL     1     -16.562 -13.655  -6.662  1.00  0.00     0.177 C 
BRANCH  13  14
HETATM   14  O   UNL     1     -16.851 -12.738  -7.718  1.00  0.00    -0.395 OA
HETATM   15  C   UNL     1     -18.143 -12.980  -8.272  1.00  0.00     0.201 C 
ENDBRANCH  13  14
ENDBRANCH  12  13
ENDBRANCH  11  12
ENDBRANCH   9  11
ENDBRANCH   6   9
BRANCH   7  16
HETATM   16  C   UNL     1     -18.477 -10.511  -5.081  1.00  0.00     0.010 C 
HETATM   17  C   UNL     1     -17.631  -9.693  -6.038  1.00  0.00     0.006 C 
ENDBRANCH   7  16
BRANCH   1  18
HETATM   18  C   UNL     1     -20.776  -8.866  -3.669  1.00  0.00     0.292 C 
HETATM   19  O   UNL     1     -21.667  -9.237  -4.416  1.00  0.00    -0.259 OA
BRANCH  18  20
HETATM   20  O   UNL     1     -20.527  -7.571  -3.374  1.00  0.00    -0.318 OA
BRANCH  20  21
HETATM   21  C   UNL     1     -21.592  -6.624  -3.528  1.00  0.00     0.174 C 
HETATM   22  C   UNL     1     -22.039  -6.048  -2.192  1.00  0.00     0.034 C 
ENDBRANCH  20  21
ENDBRANCH  18  20
ENDBRANCH   1  18
BRANCH   2  23
HETATM   23  C   UNL     1     -21.392  -9.940  -1.028  1.00  0.00    -0.009 A 
HETATM   24  C   UNL     1     -21.503  -8.805  -0.217  1.00  0.00     0.014 A 
HETATM   25  C   UNL     1     -22.693  -8.544   0.467  1.00  0.00     0.001 A 
HETATM   26  C   UNL     1     -23.776  -9.414   0.347  1.00  0.00     0.000 A 
HETATM   27  C   UNL     1     -23.678 -10.539  -0.471  1.00  0.00     0.001 A 
HETATM   28  C   UNL     1     -22.494 -10.796  -1.168  1.00  0.00     0.014 A 
ENDBRANCH   2  23
TORSDOF 10
ENDMDL
MODEL 7
REMARK VINA RESULT:      -5.7      3.434      5.806
REMARK  10 active torsions:
REMARK  status: ('A' for Active; 'I' for Inactive)
REMARK    1  A    between atoms: C_2  and  O_3 
REMARK    2  A    between atoms: O_3  and  C_4 
REMARK    3  A    between atoms: C_4  and  C_6 
REMARK    4  A    between atoms: C_7  and  C_8 
REMARK    5  A    between atoms: C_17  and  C_18 
REMARK    6  A    between atoms: C_18  and  S_20 
REMARK    7  A    between atoms: S_20  and  C_21 
REMARK    8  A    between atoms: C_21  and  C_22 
REMARK    9  A    between atoms: C_22  and  O_23 
REMARK   10  A    between atoms: C_25  and  C_26 
ROOT
HETATM    1  C   UNL     1     -20.170 -10.699  -3.244  1.00  0.00     0.053 A 
HETATM    2  C   UNL     1     -19.746  -9.556  -2.656  1.00  0.00     0.055 A 
HETATM    3  N   UNL     1     -18.412  -9.221  -2.640  1.00  0.00    -0.358 N 
HETATM    4  C   UNL     1     -17.393 -10.003  -3.141  1.00  0.00     0.017 A 
HETATM    5  C   UNL     1     -16.015  -9.394  -2.996  1.00  0.00     0.069 C 
HETATM    6  C   UNL     1     -17.670 -11.196  -3.731  1.00  0.00     0.030 A 
HETATM    7  C   UNL     1     -19.145 -11.656  -3.925  1.00  0.00     0.066 A 
HETATM    8  H   UNL     1     -18.174  -8.329  -2.216  1.00  0.00     0.166 HD
ENDROOT
BRANCH   6   9
HETATM    9  C   UNL     1     -16.498 -12.055  -4.148  1.00  0.00     0.217 C 
HETATM   10  O   UNL     1     -15.908 -12.789  -3.365  1.00  0.00    -0.280 OA
BRANCH   9  11
HETATM   11  S   UNL     1     -15.961 -11.958  -5.813  1.00  0.00    -0.085 SA
BRANCH  11  12
HETATM   12  C   UNL     1     -14.139 -12.019  -5.574  1.00  0.00     0.108 C 
BRANCH  12  13
HETATM   13  C   UNL     1     -13.356 -13.222  -6.124  1.00  0.00     0.177 C 
BRANCH  13  14
HETATM   14  O   UNL     1     -14.182 -14.378  -6.268  1.00  0.00    -0.395 OA
HETATM   15  C   UNL     1     -13.401 -15.571  -6.286  1.00  0.00     0.201 C 
ENDBRANCH  13  14
ENDBRANCH  12  13
ENDBRANCH  11  12
ENDBRANCH   9  11
ENDBRANCH   6   9
BRANCH   7  16
HETATM   16  C   UNL     1     -19.378 -13.157  -3.610  1.00  0.00     0.010 C 
HETATM   17  C   UNL     1     -19.947 -13.993  -4.740  1.00  0.00     0.006 C 
ENDBRANCH   7  16
BRANCH   1  18
HETATM   18  C   UNL     1     -21.639 -10.970  -3.312  1.00  0.00     0.292 C 
HETATM   19  O   UNL     1     -22.356 -10.733  -4.271  1.00  0.00    -0.259 OA
BRANCH  18  20
HETATM   20  O   UNL     1     -22.080 -11.513  -2.156  1.00  0.00    -0.318 OA
BRANCH  20  21
HETATM   21  C   UNL     1     -23.463 -11.353  -1.816  1.00  0.00     0.174 C 
HETATM   22  C   UNL     1     -23.664 -11.163  -0.320  1.00  0.00     0.034 C 
ENDBRANCH  20  21
ENDBRANCH  18  20
ENDBRANCH   1  18
BRANCH   2  23
HETATM   23  C   UNL     1     -20.630  -8.557  -2.021  1.00  0.00    -0.009 A 
HETATM   24  C   UNL     1     -20.989  -8.697  -0.676  1.00  0.00     0.014 A 
HETATM   25  C   UNL     1     -21.841  -7.767  -0.075  1.00  0.00     0.001 A 
HETATM   26  C   UNL     1     -22.340  -6.694  -0.815  1.00  0.00     0.000 A 
HETATM   27  C   UNL     1     -21.975  -6.540  -2.151  1.00  0.00     0.001 A 
HETATM   28  C   UNL     1     -21.112  -7.461  -2.751  1.00  0.00     0.014 A 
ENDBRANCH   2  23
TORSDOF 10
ENDMDL
MODEL 8
REMARK VINA RESULT:      -5.6      2.358      4.247
REMARK  10 active torsions:
REMARK  status: ('A' for Active; 'I' for Inactive)
REMARK    1  A    between atoms: C_2  and  O_3 
REMARK    2  A    between atoms: O_3  and  C_4 
REMARK    3  A    between atoms: C_4  and  C_6 
REMARK    4  A    between atoms: C_7  and  C_8 
REMARK    5  A    between atoms: C_17  and  C_18 
REMARK    6  A    between atoms: C_18  and  S_20 
REMARK    7  A    between atoms: S_20  and  C_21 
REMARK    8  A    between atoms: C_21  and  C_22 
REMARK    9  A    between atoms: C_22  and  O_23 
REMARK   10  A    between atoms: C_25  and  C_26 
ROOT
HETATM    1  C   UNL     1     -21.293  -8.038  -3.817  1.00  0.00     0.053 A 
HETATM    2  C   UNL     1     -21.237  -7.929  -5.165  1.00  0.00     0.055 A 
HETATM    3  N   UNL     1     -21.205  -9.048  -5.965  1.00  0.00    -0.358 N 
HETATM    4  C   UNL     1     -21.164 -10.347  -5.507  1.00  0.00     0.017 A 
HETATM    5  C   UNL     1     -21.136 -11.391  -6.603  1.00  0.00     0.069 C 
HETATM    6  C   UNL     1     -21.181 -10.607  -4.173  1.00  0.00     0.030 A 
HETATM    7  C   UNL     1     -21.331  -9.445  -3.146  1.00  0.00     0.066 A 
HETATM    8  H   UNL     1     -21.203  -8.888  -6.968  1.00  0.00     0.166 HD
ENDROOT
BRANCH   6   9
HETATM    9  C   UNL     1     -21.012 -12.045  -3.740  1.00  0.00     0.217 C 
HETATM   10  O   UNL     1     -19.912 -12.556  -3.569  1.00  0.00    -0.280 OA
BRANCH   9  11
HETATM   11  S   UNL     1     -22.458 -13.007  -3.508  1.00  0.00    -0.085 SA
BRANCH  11  12
HETATM   12  C   UNL     1     -22.624 -12.912  -1.679  1.00  0.00     0.108 C 
BRANCH  12  13
HETATM   13  C   UNL     1     -23.727 -12.026  -1.077  1.00  0.00     0.177 C 
BRANCH  13  14
HETATM   14  O   UNL     1     -23.299 -11.382   0.124  1.00  0.00    -0.395 OA
HETATM   15  C   UNL     1     -22.023 -11.863   0.541  1.00  0.00     0.201 C 
ENDBRANCH  13  14
ENDBRANCH  12  13
ENDBRANCH  11  12
ENDBRANCH   9  11
ENDBRANCH   6   9
BRANCH   7  16
HETATM   16  C   UNL     1     -20.404  -9.579  -1.910  1.00  0.00     0.010 C 
HETATM   17  C   UNL     1     -18.918  -9.437  -2.175  1.00  0.00     0.006 C 
ENDBRANCH   7  16
BRANCH   1  18
HETATM   18  C   UNL     1     -21.417  -6.792  -2.999  1.00  0.00     0.292 C 
HETATM   19  O   UNL     1     -20.650  -5.843  -3.040  1.00  0.00    -0.259 OA
BRANCH  18  20
HETATM   20  O   UNL     1     -22.498  -6.855  -2.191  1.00  0.00    -0.318 OA
BRANCH  20  21
HETATM   21  C   UNL     1     -22.300  -6.700  -0.781  1.00  0.00     0.174 C 
HETATM   22  C   UNL     1     -22.919  -7.844   0.011  1.00  0.00     0.034 C 
ENDBRANCH  20  21
ENDBRANCH  18  20
ENDBRANCH   1  18
BRANCH   2  23
HETATM   23  C   UNL     1     -21.240  -6.652  -5.908  1.00  0.00    -0.009 A 
HETATM   24  C   UNL     1     -20.050  -6.161  -6.458  1.00  0.00     0.014 A 
HETATM   25  C   UNL     1     -20.043  -4.944  -7.144  1.00  0.00     0.001 A 
HETATM   26  C   UNL     1     -21.221  -4.211  -7.283  1.00  0.00     0.000 A 
HETATM   27  C   UNL     1     -22.413  -4.701  -6.751  1.00  0.00     0.001 A 
HETATM   28  C   UNL     1     -22.427  -5.925  -6.076  1.00  0.00     0.014 A 
ENDBRANCH   2  23
TORSDOF 10
ENDMDL
MODEL 9
REMARK VINA RESULT:      -5.5      2.719      6.269
REMARK  10 active torsions:
REMARK  status: ('A' for Active; 'I' for Inactive)
REMARK    1  A    between atoms: C_2  and  O_3 
REMARK    2  A    between atoms: O_3  and  C_4 
REMARK    3  A    between atoms: C_4  and  C_6 
REMARK    4  A    between atoms: C_7  and  C_8 
REMARK    5  A    between atoms: C_17  and  C_18 
REMARK    6  A    between atoms: C_18  and  S_20 
REMARK    7  A    between atoms: S_20  and  C_21 
REMARK    8  A    between atoms: C_21  and  C_22 
REMARK    9  A    between atoms: C_22  and  O_23 
REMARK   10  A    between atoms: C_25  and  C_26 
ROOT
HETATM    1  C   UNL     1     -20.569  -9.416  -2.621  1.00  0.00     0.053 A 
HETATM    2  C   UNL     1     -20.823 -10.725  -2.387  1.00  0.00     0.055 A 
HETATM    3  N   UNL     1     -20.114 -11.709  -3.035  1.00  0.00    -0.358 N 
HETATM    4  C   UNL     1     -19.155 -11.489  -4.000  1.00  0.00     0.017 A 
HETATM    5  C   UNL     1     -18.528 -12.752  -4.552  1.00  0.00     0.069 C 
HETATM    6  C   UNL     1     -18.821 -10.221  -4.361  1.00  0.00     0.030 A 
HETATM    7  C   UNL     1     -19.457  -9.001  -3.630  1.00  0.00     0.066 A 
HETATM    8  H   UNL     1     -20.332 -12.668  -2.780  1.00  0.00     0.166 HD
ENDROOT
BRANCH   6   9
HETATM    9  C   UNL     1     -17.851 -10.056  -5.507  1.00  0.00     0.217 C 
HETATM   10  O   UNL     1     -18.218  -9.965  -6.673  1.00  0.00    -0.280 OA
BRANCH   9  11
HETATM   11  S   UNL     1     -16.139 -10.024  -5.136  1.00  0.00    -0.085 SA
BRANCH  11  12
HETATM   12  C   UNL     1     -16.200  -9.625  -3.342  1.00  0.00     0.108 C 
BRANCH  12  13
HETATM   13  C   UNL     1     -15.734 -10.683  -2.328  1.00  0.00     0.177 C 
BRANCH  13  14
HETATM   14  O   UNL     1     -16.793 -11.099  -1.466  1.00  0.00    -0.395 OA
HETATM   15  C   UNL     1     -16.760 -12.509  -1.252  1.00  0.00     0.201 C 
ENDBRANCH  13  14
ENDBRANCH  12  13
ENDBRANCH  11  12
ENDBRANCH   9  11
ENDBRANCH   6   9
BRANCH   7  16
HETATM   16  C   UNL     1     -19.867  -7.847  -4.582  1.00  0.00     0.010 C 
HETATM   17  C   UNL     1     -21.057  -8.120  -5.483  1.00  0.00     0.006 C 
ENDBRANCH   7  16
BRANCH   1  18
HETATM   18  C   UNL     1     -21.305  -8.387  -1.821  1.00  0.00     0.292 C 
HETATM   19  O   UNL     1     -22.105  -7.583  -2.273  1.00  0.00    -0.259 OA
BRANCH  18  20
HETATM   20  O   UNL     1     -20.961  -8.457  -0.517  1.00  0.00    -0.318 OA
BRANCH  20  21
HETATM   21  C   UNL     1     -21.754  -7.736   0.434  1.00  0.00     0.174 C 
HETATM   22  C   UNL     1     -23.128  -8.362   0.620  1.00  0.00     0.034 C 
ENDBRANCH  20  21
ENDBRANCH  18  20
ENDBRANCH   1  18
BRANCH   2  23
HETATM   23  C   UNL     1     -21.820 -11.230  -1.422  1.00  0.00    -0.009 A 
HETATM   24  C   UNL     1     -21.401 -11.752  -0.193  1.00  0.00     0.014 A 
HETATM   25  C   UNL     1     -22.339 -12.250   0.715  1.00  0.00     0.001 A 
HETATM   26  C   UNL     1     -23.697 -12.233   0.401  1.00  0.00     0.000 A 
HETATM   27  C   UNL     1     -24.124 -11.701  -0.815  1.00  0.00     0.001 A 
HETATM   28  C   UNL     1     -23.190 -11.189  -1.720  1.00  0.00     0.014 A 
ENDBRANCH   2  23
TORSDOF 10
ENDMDL
