REMARK  17 active torsions:
REMARK  status: ('A' for Active; 'I' for Inactive)
REMARK    1  A    between atoms: C_2  and  C_3 
REMARK    2  A    between atoms: C_3  and  C_4 
REMARK    3  A    between atoms: C_4  and  C_5 
REMARK    4  A    between atoms: C_5  and  C_6 
REMARK    5  A    between atoms: C_7  and  C_8 
REMARK    6  A    between atoms: C_8  and  C_9 
REMARK    7  A    between atoms: C_10  and  C_11 
REMARK    8  A    between atoms: C_11  and  C_12 
REMARK    9  A    between atoms: C_13  and  C_14 
REMARK   10  A    between atoms: C_14  and  C_15 
REMARK   11  A    between atoms: C_16  and  C_17 
REMARK   12  A    between atoms: C_17  and  C_18 
REMARK   13  A    between atoms: C_18  and  C_19 
REMARK   14  A    between atoms: C_19  and  C_20 
REMARK       I    between atoms: C_20  and  N_22 
REMARK   15  A    between atoms: N_22  and  C_23 
REMARK   16  A    between atoms: C_23  and  C_24 
REMARK   17  A    between atoms: C_24  and  O_25 
ROOT
HETATM    1  C   UNL     1      14.911  -5.625   6.087  1.00  0.00     0.053 C 
ENDROOT
BRANCH   1   2
HETATM    2  C   UNL     1      13.415  -5.606   6.052  1.00  0.00    -0.027 C 
HETATM    3  C   UNL     1      12.709  -4.832   5.213  1.00  0.00    -0.027 C 
BRANCH   3   4
HETATM    4  C   UNL     1      11.213  -4.797   5.194  1.00  0.00     0.053 C 
BRANCH   4   5
HETATM    5  C   UNL     1      10.674  -5.192   3.854  1.00  0.00    -0.027 C 
HETATM    6  C   UNL     1       9.902  -4.394   3.103  1.00  0.00    -0.027 C 
BRANCH   6   7
HETATM    7  C   UNL     1       9.361  -4.791   1.766  1.00  0.00     0.053 C 
BRANCH   7   8
HETATM    8  C   UNL     1       7.864  -4.755   1.757  1.00  0.00    -0.027 C 
HETATM    9  C   UNL     1       7.148  -3.984   0.924  1.00  0.00    -0.030 C 
BRANCH   9  10
HETATM   10  C   UNL     1       5.653  -3.974   0.905  1.00  0.00     0.027 C 
BRANCH  10  11
HETATM   11  C   UNL     1       5.122  -4.394  -0.464  1.00  0.00     0.004 C 
BRANCH  11  12
HETATM   12  C   UNL     1       3.595  -4.381  -0.475  1.00  0.00    -0.000 C 
BRANCH  12  13
HETATM   13  C   UNL     1       3.051  -4.797  -1.839  1.00  0.00    -0.005 C 
HETATM   14  C   UNL     1       1.533  -4.782  -1.847  1.00  0.00     0.005 C 
ENDBRANCH  12  13
ENDBRANCH  11  12
ENDBRANCH  10  11
ENDBRANCH   9  10
ENDBRANCH   7   8
ENDBRANCH   6   7
ENDBRANCH   4   5
ENDBRANCH   3   4
ENDBRANCH   1   2
BRANCH   1  15
HETATM   15  C   UNL     1      15.437  -6.991   5.780  1.00  0.00    -0.027 C 
HETATM   16  C   UNL     1      16.236  -7.252   4.734  1.00  0.00    -0.030 C 
BRANCH  16  17
HETATM   17  C   UNL     1      16.794  -8.612   4.445  1.00  0.00     0.027 C 
BRANCH  17  18
HETATM   18  C   UNL     1      18.319  -8.618   4.468  1.00  0.00     0.013 C 
BRANCH  18  19
HETATM   19  C   UNL     1      18.911  -8.216   5.826  1.00  0.00     0.103 C 
BRANCH  19  20
HETATM   20  C   UNL     1      20.424  -8.241   5.772  1.00  0.00     0.217 C 
HETATM   21  O   UNL     1      21.053  -8.540   4.760  1.00  0.00    -0.274 OA
HETATM   22  N   UNL     1      21.040  -7.894   6.945  1.00  0.00    -0.359 N 
HETATM   23  H   UNL     1      20.487  -7.617   7.750  1.00  0.00     0.162 HD
BRANCH  22  24
HETATM   24  C   UNL     1      22.494  -7.921   7.058  1.00  0.00     0.148 C 
BRANCH  24  25
HETATM   25  C   UNL     1      23.129  -6.580   6.666  1.00  0.00     0.183 C 
BRANCH  25  26
HETATM   26  O   UNL     1      22.688  -5.551   7.549  1.00  0.00    -0.399 OA
HETATM   27  H   UNL     1      21.729  -5.468   7.410  1.00  0.00     0.209 HD
ENDBRANCH  25  26
ENDBRANCH  24  25
ENDBRANCH  22  24
ENDBRANCH  19  20
ENDBRANCH  18  19
ENDBRANCH  17  18
ENDBRANCH  16  17
ENDBRANCH   1  15
TORSDOF 17
