MODEL 1
REMARK VINA RESULT:      -6.7      0.000      0.000
REMARK  17 active torsions:
REMARK  status: ('A' for Active; 'I' for Inactive)
REMARK    1  A    between atoms: C_2  and  C_3 
REMARK    2  A    between atoms: C_3  and  C_4 
REMARK    3  A    between atoms: C_4  and  C_5 
REMARK    4  A    between atoms: C_5  and  C_6 
REMARK    5  A    between atoms: C_7  and  C_8 
REMARK    6  A    between atoms: C_8  and  C_9 
REMARK    7  A    between atoms: C_10  and  C_11 
REMARK    8  A    between atoms: C_11  and  C_12 
REMARK    9  A    between atoms: C_13  and  C_14 
REMARK   10  A    between atoms: C_14  and  C_15 
REMARK   11  A    between atoms: C_16  and  C_17 
REMARK   12  A    between atoms: C_17  and  C_18 
REMARK   13  A    between atoms: C_18  and  C_19 
REMARK   14  A    between atoms: C_19  and  C_20 
REMARK       I    between atoms: C_20  and  N_22 
REMARK   15  A    between atoms: N_22  and  C_23 
REMARK   16  A    between atoms: C_23  and  C_24 
REMARK   17  A    between atoms: C_24  and  O_25 
ROOT
HETATM    1  C   UNL     1     -21.842  -6.009  -2.267  1.00  0.00     0.053 C 
ENDROOT
BRANCH   1   2
HETATM    2  C   UNL     1     -22.365  -7.171  -1.484  1.00  0.00    -0.027 C 
HETATM    3  C   UNL     1     -22.473  -7.168  -0.146  1.00  0.00    -0.027 C 
BRANCH   3   4
HETATM    4  C   UNL     1     -22.975  -8.339   0.638  1.00  0.00     0.053 C 
BRANCH   4   5
HETATM    5  C   UNL     1     -22.902  -9.603  -0.161  1.00  0.00    -0.027 C 
HETATM    6  C   UNL     1     -23.875 -10.525  -0.177  1.00  0.00    -0.027 C 
BRANCH   6   7
HETATM    7  C   UNL     1     -23.800 -11.790  -0.972  1.00  0.00     0.053 C 
BRANCH   7   8
HETATM    8  C   UNL     1     -22.792 -11.675  -2.074  1.00  0.00    -0.027 C 
HETATM    9  C   UNL     1     -23.103 -11.305  -3.325  1.00  0.00    -0.030 C 
BRANCH   9  10
HETATM   10  C   UNL     1     -22.085 -11.169  -4.412  1.00  0.00     0.027 C 
BRANCH  10  11
HETATM   11  C   UNL     1     -20.863 -10.396  -3.921  1.00  0.00     0.004 C 
BRANCH  11  12
HETATM   12  C   UNL     1     -19.696 -10.563  -4.892  1.00  0.00    -0.000 C 
BRANCH  12  13
HETATM   13  C   UNL     1     -18.741  -9.375  -4.815  1.00  0.00    -0.005 C 
HETATM   14  C   UNL     1     -17.769  -9.381  -5.980  1.00  0.00     0.005 C 
ENDBRANCH  12  13
ENDBRANCH  11  12
ENDBRANCH  10  11
ENDBRANCH   9  10
ENDBRANCH   7   8
ENDBRANCH   6   7
ENDBRANCH   4   5
ENDBRANCH   3   4
ENDBRANCH   1   2
BRANCH   1  15
HETATM   15  C   UNL     1     -21.238  -6.460  -3.559  1.00  0.00    -0.027 C 
HETATM   16  C   UNL     1     -21.941  -6.582  -4.695  1.00  0.00    -0.030 C 
BRANCH  16  17
HETATM   17  C   UNL     1     -21.332  -6.999  -5.999  1.00  0.00     0.027 C 
BRANCH  17  18
HETATM   18  C   UNL     1     -20.259  -6.020  -6.465  1.00  0.00     0.013 C 
BRANCH  18  19
HETATM   19  C   UNL     1     -20.792  -4.601  -6.706  1.00  0.00     0.103 C 
BRANCH  19  20
HETATM   20  C   UNL     1     -21.134  -4.405  -8.168  1.00  0.00     0.217 C 
HETATM   21  O   UNL     1     -20.296  -4.458  -9.065  1.00  0.00    -0.274 OA
HETATM   22  N   UNL     1     -22.461  -4.173  -8.414  1.00  0.00    -0.359 N 
HETATM   23  H   UNL     1     -23.130  -4.173  -7.651  1.00  0.00     0.162 HD
BRANCH  22  24
HETATM   24  C   UNL     1     -22.932  -3.916  -9.771  1.00  0.00     0.148 C 
BRANCH  24  25
HETATM   25  C   UNL     1     -24.462  -3.973  -9.872  1.00  0.00     0.183 C 
BRANCH  25  26
HETATM   26  O   UNL     1     -25.039  -2.834  -9.237  1.00  0.00    -0.399 OA
HETATM   27  H   UNL     1     -25.722  -3.177  -8.634  1.00  0.00     0.209 HD
ENDBRANCH  25  26
ENDBRANCH  24  25
ENDBRANCH  22  24
ENDBRANCH  19  20
ENDBRANCH  18  19
ENDBRANCH  17  18
ENDBRANCH  16  17
ENDBRANCH   1  15
TORSDOF 17
ENDMDL
MODEL 2
REMARK VINA RESULT:      -6.6      3.031      5.244
REMARK  17 active torsions:
REMARK  status: ('A' for Active; 'I' for Inactive)
REMARK    1  A    between atoms: C_2  and  C_3 
REMARK    2  A    between atoms: C_3  and  C_4 
REMARK    3  A    between atoms: C_4  and  C_5 
REMARK    4  A    between atoms: C_5  and  C_6 
REMARK    5  A    between atoms: C_7  and  C_8 
REMARK    6  A    between atoms: C_8  and  C_9 
REMARK    7  A    between atoms: C_10  and  C_11 
REMARK    8  A    between atoms: C_11  and  C_12 
REMARK    9  A    between atoms: C_13  and  C_14 
REMARK   10  A    between atoms: C_14  and  C_15 
REMARK   11  A    between atoms: C_16  and  C_17 
REMARK   12  A    between atoms: C_17  and  C_18 
REMARK   13  A    between atoms: C_18  and  C_19 
REMARK   14  A    between atoms: C_19  and  C_20 
REMARK       I    between atoms: C_20  and  N_22 
REMARK   15  A    between atoms: N_22  and  C_23 
REMARK   16  A    between atoms: C_23  and  C_24 
REMARK   17  A    between atoms: C_24  and  O_25 
ROOT
HETATM    1  C   UNL     1     -22.235  -6.184  -2.370  1.00  0.00     0.053 C 
ENDROOT
BRANCH   1   2
HETATM    2  C   UNL     1     -21.726  -7.191  -1.388  1.00  0.00    -0.027 C 
HETATM    3  C   UNL     1     -22.306  -7.417  -0.198  1.00  0.00    -0.027 C 
BRANCH   3   4
HETATM    4  C   UNL     1     -21.782  -8.408   0.793  1.00  0.00     0.053 C 
BRANCH   4   5
HETATM    5  C   UNL     1     -22.080  -9.814   0.370  1.00  0.00    -0.027 C 
HETATM    6  C   UNL     1     -23.263 -10.201  -0.127  1.00  0.00    -0.027 C 
BRANCH   6   7
HETATM    7  C   UNL     1     -23.561 -11.606  -0.546  1.00  0.00     0.053 C 
BRANCH   7   8
HETATM    8  C   UNL     1     -23.575 -12.530   0.633  1.00  0.00    -0.027 C 
HETATM    9  C   UNL     1     -22.482 -13.162   1.090  1.00  0.00    -0.030 C 
BRANCH   9  10
HETATM   10  C   UNL     1     -22.501 -14.062   2.283  1.00  0.00     0.027 C 
BRANCH  10  11
HETATM   11  C   UNL     1     -23.930 -14.472   2.635  1.00  0.00     0.004 C 
BRANCH  11  12
HETATM   12  C   UNL     1     -23.930 -15.739   3.488  1.00  0.00    -0.000 C 
BRANCH  12  13
HETATM   13  C   UNL     1     -24.270 -15.422   4.942  1.00  0.00    -0.005 C 
HETATM   14  C   UNL     1     -23.055 -15.596   5.835  1.00  0.00     0.005 C 
ENDBRANCH  12  13
ENDBRANCH  11  12
ENDBRANCH  10  11
ENDBRANCH   9  10
ENDBRANCH   7   8
ENDBRANCH   6   7
ENDBRANCH   4   5
ENDBRANCH   3   4
ENDBRANCH   1   2
BRANCH   1  15
HETATM   15  C   UNL     1     -21.297  -6.040  -3.526  1.00  0.00    -0.027 C 
HETATM   16  C   UNL     1     -21.521  -6.594  -4.727  1.00  0.00    -0.030 C 
BRANCH  16  17
HETATM   17  C   UNL     1     -20.601  -6.421  -5.897  1.00  0.00     0.027 C 
BRANCH  17  18
HETATM   18  C   UNL     1     -19.979  -5.030  -5.930  1.00  0.00     0.013 C 
BRANCH  18  19
HETATM   19  C   UNL     1     -19.628  -4.551  -7.346  1.00  0.00     0.103 C 
BRANCH  19  20
HETATM   20  C   UNL     1     -20.884  -4.164  -8.100  1.00  0.00     0.217 C 
HETATM   21  O   UNL     1     -21.777  -3.481  -7.606  1.00  0.00    -0.274 OA
HETATM   22  N   UNL     1     -20.941  -4.631  -9.386  1.00  0.00    -0.359 N 
HETATM   23  H   UNL     1     -20.166  -5.162  -9.771  1.00  0.00     0.162 HD
BRANCH  22  24
HETATM   24  C   UNL     1     -22.113  -4.380 -10.217  1.00  0.00     0.148 C 
BRANCH  24  25
HETATM   25  C   UNL     1     -21.751  -4.260 -11.704  1.00  0.00     0.183 C 
BRANCH  25  26
HETATM   26  O   UNL     1     -21.451  -2.905 -12.029  1.00  0.00    -0.399 OA
HETATM   27  H   UNL     1     -22.087  -2.644 -12.716  1.00  0.00     0.209 HD
ENDBRANCH  25  26
ENDBRANCH  24  25
ENDBRANCH  22  24
ENDBRANCH  19  20
ENDBRANCH  18  19
ENDBRANCH  17  18
ENDBRANCH  16  17
ENDBRANCH   1  15
TORSDOF 17
ENDMDL
MODEL 3
REMARK VINA RESULT:      -6.4      3.074      7.612
REMARK  17 active torsions:
REMARK  status: ('A' for Active; 'I' for Inactive)
REMARK    1  A    between atoms: C_2  and  C_3 
REMARK    2  A    between atoms: C_3  and  C_4 
REMARK    3  A    between atoms: C_4  and  C_5 
REMARK    4  A    between atoms: C_5  and  C_6 
REMARK    5  A    between atoms: C_7  and  C_8 
REMARK    6  A    between atoms: C_8  and  C_9 
REMARK    7  A    between atoms: C_10  and  C_11 
REMARK    8  A    between atoms: C_11  and  C_12 
REMARK    9  A    between atoms: C_13  and  C_14 
REMARK   10  A    between atoms: C_14  and  C_15 
REMARK   11  A    between atoms: C_16  and  C_17 
REMARK   12  A    between atoms: C_17  and  C_18 
REMARK   13  A    between atoms: C_18  and  C_19 
REMARK   14  A    between atoms: C_19  and  C_20 
REMARK       I    between atoms: C_20  and  N_22 
REMARK   15  A    between atoms: N_22  and  C_23 
REMARK   16  A    between atoms: C_23  and  C_24 
REMARK   17  A    between atoms: C_24  and  O_25 
ROOT
HETATM    1  C   UNL     1     -22.414  -8.412   0.662  1.00  0.00     0.053 C 
ENDROOT
BRANCH   1   2
HETATM    2  C   UNL     1     -22.359  -7.204  -0.219  1.00  0.00    -0.027 C 
HETATM    3  C   UNL     1     -22.006  -7.253  -1.513  1.00  0.00    -0.027 C 
BRANCH   3   4
HETATM    4  C   UNL     1     -21.929  -6.041  -2.387  1.00  0.00     0.053 C 
BRANCH   4   5
HETATM    5  C   UNL     1     -21.969  -6.410  -3.838  1.00  0.00    -0.027 C 
HETATM    6  C   UNL     1     -20.894  -6.382  -4.638  1.00  0.00    -0.027 C 
BRANCH   6   7
HETATM    7  C   UNL     1     -20.935  -6.747  -6.088  1.00  0.00     0.053 C 
BRANCH   7   8
HETATM    8  C   UNL     1     -20.956  -5.525  -6.953  1.00  0.00    -0.027 C 
HETATM    9  C   UNL     1     -20.151  -5.356  -8.013  1.00  0.00    -0.030 C 
BRANCH   9  10
HETATM   10  C   UNL     1     -20.197  -4.143  -8.886  1.00  0.00     0.027 C 
BRANCH  10  11
HETATM   11  C   UNL     1     -20.441  -4.528 -10.344  1.00  0.00     0.004 C 
BRANCH  11  12
HETATM   12  C   UNL     1     -21.392  -3.535 -11.009  1.00  0.00    -0.000 C 
BRANCH  12  13
HETATM   13  C   UNL     1     -22.779  -3.591 -10.375  1.00  0.00    -0.005 C 
HETATM   14  C   UNL     1     -23.471  -4.904 -10.696  1.00  0.00     0.005 C 
ENDBRANCH  12  13
ENDBRANCH  11  12
ENDBRANCH  10  11
ENDBRANCH   9  10
ENDBRANCH   7   8
ENDBRANCH   6   7
ENDBRANCH   4   5
ENDBRANCH   3   4
ENDBRANCH   1   2
BRANCH   1  15
HETATM   15  C   UNL     1     -22.494  -9.665  -0.151  1.00  0.00    -0.027 C 
HETATM   16  C   UNL     1     -23.636 -10.343  -0.343  1.00  0.00    -0.030 C 
BRANCH  16  17
HETATM   17  C   UNL     1     -23.726 -11.578  -1.187  1.00  0.00     0.027 C 
BRANCH  17  18
HETATM   18  C   UNL     1     -22.574 -11.673  -2.182  1.00  0.00     0.013 C 
BRANCH  18  19
HETATM   19  C   UNL     1     -22.828 -10.903  -3.485  1.00  0.00     0.103 C 
BRANCH  19  20
HETATM   20  C   UNL     1     -21.527 -10.373  -4.049  1.00  0.00     0.217 C 
HETATM   21  O   UNL     1     -21.307 -10.283  -5.254  1.00  0.00    -0.274 OA
HETATM   22  N   UNL     1     -20.613  -9.990  -3.104  1.00  0.00    -0.359 N 
HETATM   23  H   UNL     1     -20.845 -10.045  -2.117  1.00  0.00     0.162 HD
BRANCH  22  24
HETATM   24  C   UNL     1     -19.294  -9.506  -3.497  1.00  0.00     0.148 C 
BRANCH  24  25
HETATM   25  C   UNL     1     -18.176 -10.469  -3.078  1.00  0.00     0.183 C 
BRANCH  25  26
HETATM   26  O   UNL     1     -18.712 -11.766  -2.829  1.00  0.00    -0.399 OA
HETATM   27  H   UNL     1     -19.679 -11.673  -2.877  1.00  0.00     0.209 HD
ENDBRANCH  25  26
ENDBRANCH  24  25
ENDBRANCH  22  24
ENDBRANCH  19  20
ENDBRANCH  18  19
ENDBRANCH  17  18
ENDBRANCH  16  17
ENDBRANCH   1  15
TORSDOF 17
ENDMDL
MODEL 4
REMARK VINA RESULT:      -6.2      1.636      2.342
REMARK  17 active torsions:
REMARK  status: ('A' for Active; 'I' for Inactive)
REMARK    1  A    between atoms: C_2  and  C_3 
REMARK    2  A    between atoms: C_3  and  C_4 
REMARK    3  A    between atoms: C_4  and  C_5 
REMARK    4  A    between atoms: C_5  and  C_6 
REMARK    5  A    between atoms: C_7  and  C_8 
REMARK    6  A    between atoms: C_8  and  C_9 
REMARK    7  A    between atoms: C_10  and  C_11 
REMARK    8  A    between atoms: C_11  and  C_12 
REMARK    9  A    between atoms: C_13  and  C_14 
REMARK   10  A    between atoms: C_14  and  C_15 
REMARK   11  A    between atoms: C_16  and  C_17 
REMARK   12  A    between atoms: C_17  and  C_18 
REMARK   13  A    between atoms: C_18  and  C_19 
REMARK   14  A    between atoms: C_19  and  C_20 
REMARK       I    between atoms: C_20  and  N_22 
REMARK   15  A    between atoms: N_22  and  C_23 
REMARK   16  A    between atoms: C_23  and  C_24 
REMARK   17  A    between atoms: C_24  and  O_25 
ROOT
HETATM    1  C   UNL     1     -22.134  -6.286  -2.520  1.00  0.00     0.053 C 
ENDROOT
BRANCH   1   2
HETATM    2  C   UNL     1     -21.925  -7.380  -1.520  1.00  0.00    -0.027 C 
HETATM    3  C   UNL     1     -22.248  -7.261  -0.223  1.00  0.00    -0.027 C 
BRANCH   3   4
HETATM    4  C   UNL     1     -22.018  -8.347   0.781  1.00  0.00     0.053 C 
BRANCH   4   5
HETATM    5  C   UNL     1     -21.233  -9.479   0.192  1.00  0.00    -0.027 C 
HETATM    6  C   UNL     1     -20.719 -10.480   0.920  1.00  0.00    -0.027 C 
BRANCH   6   7
HETATM    7  C   UNL     1     -19.933 -11.608   0.331  1.00  0.00     0.053 C 
BRANCH   7   8
HETATM    8  C   UNL     1     -19.596 -11.340  -1.103  1.00  0.00    -0.027 C 
HETATM    9  C   UNL     1     -18.344 -11.141  -1.544  1.00  0.00    -0.030 C 
BRANCH   9  10
HETATM   10  C   UNL     1     -18.015 -10.900  -2.982  1.00  0.00     0.027 C 
BRANCH  10  11
HETATM   11  C   UNL     1     -19.040  -9.969  -3.628  1.00  0.00     0.004 C 
BRANCH  11  12
HETATM   12  C   UNL     1     -19.936 -10.743  -4.592  1.00  0.00    -0.000 C 
BRANCH  12  13
HETATM   13  C   UNL     1     -21.300 -10.073  -4.733  1.00  0.00    -0.005 C 
HETATM   14  C   UNL     1     -22.239 -10.511  -3.623  1.00  0.00     0.005 C 
ENDBRANCH  12  13
ENDBRANCH  11  12
ENDBRANCH  10  11
ENDBRANCH   9  10
ENDBRANCH   7   8
ENDBRANCH   6   7
ENDBRANCH   4   5
ENDBRANCH   3   4
ENDBRANCH   1   2
BRANCH   1  15
HETATM   15  C   UNL     1     -21.534  -6.647  -3.842  1.00  0.00    -0.027 C 
HETATM   16  C   UNL     1     -20.820  -5.786  -4.583  1.00  0.00    -0.030 C 
BRANCH  16  17
HETATM   17  C   UNL     1     -20.187  -6.155  -5.890  1.00  0.00     0.027 C 
BRANCH  17  18
HETATM   18  C   UNL     1     -21.098  -5.840  -7.072  1.00  0.00     0.013 C 
BRANCH  18  19
HETATM   19  C   UNL     1     -21.551  -4.375  -7.122  1.00  0.00     0.103 C 
BRANCH  19  20
HETATM   20  C   UNL     1     -21.806  -3.948  -8.552  1.00  0.00     0.217 C 
HETATM   21  O   UNL     1     -20.936  -3.958  -9.419  1.00  0.00    -0.274 OA
HETATM   22  N   UNL     1     -23.094  -3.555  -8.806  1.00  0.00    -0.359 N 
HETATM   23  H   UNL     1     -23.794  -3.595  -8.073  1.00  0.00     0.162 HD
BRANCH  22  24
HETATM   24  C   UNL     1     -23.476  -3.070 -10.128  1.00  0.00     0.148 C 
BRANCH  24  25
HETATM   25  C   UNL     1     -24.857  -3.586 -10.555  1.00  0.00     0.183 C 
BRANCH  25  26
HETATM   26  O   UNL     1     -25.841  -3.209  -9.594  1.00  0.00    -0.399 OA
HETATM   27  H   UNL     1     -26.038  -4.011  -9.080  1.00  0.00     0.209 HD
ENDBRANCH  25  26
ENDBRANCH  24  25
ENDBRANCH  22  24
ENDBRANCH  19  20
ENDBRANCH  18  19
ENDBRANCH  17  18
ENDBRANCH  16  17
ENDBRANCH   1  15
TORSDOF 17
ENDMDL
MODEL 5
REMARK VINA RESULT:      -6.2      1.969      3.353
REMARK  17 active torsions:
REMARK  status: ('A' for Active; 'I' for Inactive)
REMARK    1  A    between atoms: C_2  and  C_3 
REMARK    2  A    between atoms: C_3  and  C_4 
REMARK    3  A    between atoms: C_4  and  C_5 
REMARK    4  A    between atoms: C_5  and  C_6 
REMARK    5  A    between atoms: C_7  and  C_8 
REMARK    6  A    between atoms: C_8  and  C_9 
REMARK    7  A    between atoms: C_10  and  C_11 
REMARK    8  A    between atoms: C_11  and  C_12 
REMARK    9  A    between atoms: C_13  and  C_14 
REMARK   10  A    between atoms: C_14  and  C_15 
REMARK   11  A    between atoms: C_16  and  C_17 
REMARK   12  A    between atoms: C_17  and  C_18 
REMARK   13  A    between atoms: C_18  and  C_19 
REMARK   14  A    between atoms: C_19  and  C_20 
REMARK       I    between atoms: C_20  and  N_22 
REMARK   15  A    between atoms: N_22  and  C_23 
REMARK   16  A    between atoms: C_23  and  C_24 
REMARK   17  A    between atoms: C_24  and  O_25 
ROOT
HETATM    1  C   UNL     1     -22.112  -7.013  -5.283  1.00  0.00     0.053 C 
ENDROOT
BRANCH   1   2
HETATM    2  C   UNL     1     -21.463  -7.642  -4.090  1.00  0.00    -0.027 C 
HETATM    3  C   UNL     1     -21.026  -6.938  -3.034  1.00  0.00    -0.027 C 
BRANCH   3   4
HETATM    4  C   UNL     1     -20.356  -7.565  -1.852  1.00  0.00     0.053 C 
BRANCH   4   5
HETATM    5  C   UNL     1     -21.342  -8.287  -0.985  1.00  0.00    -0.027 C 
HETATM    6  C   UNL     1     -22.406  -7.695  -0.426  1.00  0.00    -0.027 C 
BRANCH   6   7
HETATM    7  C   UNL     1     -23.388  -8.416   0.443  1.00  0.00     0.053 C 
BRANCH   7   8
HETATM    8  C   UNL     1     -23.190  -9.899   0.366  1.00  0.00    -0.027 C 
HETATM    9  C   UNL     1     -24.037 -10.726  -0.267  1.00  0.00    -0.030 C 
BRANCH   9  10
HETATM   10  C   UNL     1     -23.818 -12.202  -0.361  1.00  0.00     0.027 C 
BRANCH  10  11
HETATM   11  C   UNL     1     -22.557 -12.516  -1.164  1.00  0.00     0.004 C 
BRANCH  11  12
HETATM   12  C   UNL     1     -21.354 -12.670  -0.236  1.00  0.00    -0.000 C 
BRANCH  12  13
HETATM   13  C   UNL     1     -20.064 -12.244  -0.932  1.00  0.00    -0.005 C 
HETATM   14  C   UNL     1     -19.030 -11.779   0.076  1.00  0.00     0.005 C 
ENDBRANCH  12  13
ENDBRANCH  11  12
ENDBRANCH  10  11
ENDBRANCH   9  10
ENDBRANCH   7   8
ENDBRANCH   6   7
ENDBRANCH   4   5
ENDBRANCH   3   4
ENDBRANCH   1   2
BRANCH   1  15
HETATM   15  C   UNL     1     -21.479  -5.697  -5.606  1.00  0.00    -0.027 C 
HETATM   16  C   UNL     1     -21.342  -5.236  -6.859  1.00  0.00    -0.030 C 
BRANCH  16  17
HETATM   17  C   UNL     1     -20.741  -3.902  -7.183  1.00  0.00     0.027 C 
BRANCH  17  18
HETATM   18  C   UNL     1     -19.758  -3.988  -8.346  1.00  0.00     0.013 C 
BRANCH  18  19
HETATM   19  C   UNL     1     -20.256  -4.867  -9.502  1.00  0.00     0.103 C 
BRANCH  19  20
HETATM   20  C   UNL     1     -21.373  -4.172 -10.252  1.00  0.00     0.217 C 
HETATM   21  O   UNL     1     -21.195  -3.170 -10.940  1.00  0.00    -0.274 OA
HETATM   22  N   UNL     1     -22.603  -4.758 -10.109  1.00  0.00    -0.359 N 
HETATM   23  H   UNL     1     -22.704  -5.607  -9.562  1.00  0.00     0.162 HD
BRANCH  22  24
HETATM   24  C   UNL     1     -23.783  -4.171 -10.733  1.00  0.00     0.148 C 
BRANCH  24  25
HETATM   25  C   UNL     1     -24.637  -3.385  -9.729  1.00  0.00     0.183 C 
BRANCH  25  26
HETATM   26  O   UNL     1     -24.271  -3.732  -8.396  1.00  0.00    -0.399 OA
HETATM   27  H   UNL     1     -24.899  -3.270  -7.814  1.00  0.00     0.209 HD
ENDBRANCH  25  26
ENDBRANCH  24  25
ENDBRANCH  22  24
ENDBRANCH  19  20
ENDBRANCH  18  19
ENDBRANCH  17  18
ENDBRANCH  16  17
ENDBRANCH   1  15
TORSDOF 17
ENDMDL
MODEL 6
REMARK VINA RESULT:      -6.1      3.319      7.539
REMARK  17 active torsions:
REMARK  status: ('A' for Active; 'I' for Inactive)
REMARK    1  A    between atoms: C_2  and  C_3 
REMARK    2  A    between atoms: C_3  and  C_4 
REMARK    3  A    between atoms: C_4  and  C_5 
REMARK    4  A    between atoms: C_5  and  C_6 
REMARK    5  A    between atoms: C_7  and  C_8 
REMARK    6  A    between atoms: C_8  and  C_9 
REMARK    7  A    between atoms: C_10  and  C_11 
REMARK    8  A    between atoms: C_11  and  C_12 
REMARK    9  A    between atoms: C_13  and  C_14 
REMARK   10  A    between atoms: C_14  and  C_15 
REMARK   11  A    between atoms: C_16  and  C_17 
REMARK   12  A    between atoms: C_17  and  C_18 
REMARK   13  A    between atoms: C_18  and  C_19 
REMARK   14  A    between atoms: C_19  and  C_20 
REMARK       I    between atoms: C_20  and  N_22 
REMARK   15  A    between atoms: N_22  and  C_23 
REMARK   16  A    between atoms: C_23  and  C_24 
REMARK   17  A    between atoms: C_24  and  O_25 
ROOT
HETATM    1  C   UNL     1     -22.502  -8.642   0.726  1.00  0.00     0.053 C 
ENDROOT
BRANCH   1   2
HETATM    2  C   UNL     1     -22.322  -7.376  -0.052  1.00  0.00    -0.027 C 
HETATM    3  C   UNL     1     -22.114  -7.352  -1.378  1.00  0.00    -0.027 C 
BRANCH   3   4
HETATM    4  C   UNL     1     -21.912  -6.087  -2.152  1.00  0.00     0.053 C 
BRANCH   4   5
HETATM    5  C   UNL     1     -21.957  -6.337  -3.628  1.00  0.00    -0.027 C 
HETATM    6  C   UNL     1     -20.917  -6.807  -4.331  1.00  0.00    -0.027 C 
BRANCH   6   7
HETATM    7  C   UNL     1     -20.962  -7.053  -5.805  1.00  0.00     0.053 C 
BRANCH   7   8
HETATM    8  C   UNL     1     -21.022  -5.764  -6.566  1.00  0.00    -0.027 C 
HETATM    9  C   UNL     1     -20.483  -5.598  -7.783  1.00  0.00    -0.030 C 
BRANCH   9  10
HETATM   10  C   UNL     1     -20.571  -4.315  -8.546  1.00  0.00     0.027 C 
BRANCH  10  11
HETATM   11  C   UNL     1     -20.224  -4.530 -10.017  1.00  0.00     0.004 C 
BRANCH  11  12
HETATM   12  C   UNL     1     -21.237  -3.825 -10.917  1.00  0.00    -0.000 C 
BRANCH  12  13
HETATM   13  C   UNL     1     -22.648  -3.933 -10.346  1.00  0.00    -0.005 C 
HETATM   14  C   UNL     1     -23.524  -4.809 -11.223  1.00  0.00     0.005 C 
ENDBRANCH  12  13
ENDBRANCH  11  12
ENDBRANCH  10  11
ENDBRANCH   9  10
ENDBRANCH   7   8
ENDBRANCH   6   7
ENDBRANCH   4   5
ENDBRANCH   3   4
ENDBRANCH   1   2
BRANCH   1  15
HETATM   15  C   UNL     1     -22.626  -9.820  -0.187  1.00  0.00    -0.027 C 
HETATM   16  C   UNL     1     -23.760 -10.524  -0.325  1.00  0.00    -0.030 C 
BRANCH  16  17
HETATM   17  C   UNL     1     -23.898 -11.682  -1.266  1.00  0.00     0.027 C 
BRANCH  17  18
HETATM   18  C   UNL     1     -22.692 -11.811  -2.190  1.00  0.00     0.013 C 
BRANCH  18  19
HETATM   19  C   UNL     1     -22.779 -10.920  -3.437  1.00  0.00     0.103 C 
BRANCH  19  20
HETATM   20  C   UNL     1     -21.662 -11.252  -4.404  1.00  0.00     0.217 C 
HETATM   21  O   UNL     1     -20.867 -10.413  -4.821  1.00  0.00    -0.274 OA
HETATM   22  N   UNL     1     -21.602 -12.569  -4.773  1.00  0.00    -0.359 N 
HETATM   23  H   UNL     1     -22.254 -13.240  -4.378  1.00  0.00     0.162 HD
BRANCH  22  24
HETATM   24  C   UNL     1     -20.608 -13.027  -5.737  1.00  0.00     0.148 C 
BRANCH  24  25
HETATM   25  C   UNL     1     -21.252 -13.517  -7.042  1.00  0.00     0.183 C 
BRANCH  25  26
HETATM   26  O   UNL     1     -20.358 -13.321  -8.134  1.00  0.00    -0.399 OA
HETATM   27  H   UNL     1     -20.906 -13.030  -8.883  1.00  0.00     0.209 HD
ENDBRANCH  25  26
ENDBRANCH  24  25
ENDBRANCH  22  24
ENDBRANCH  19  20
ENDBRANCH  18  19
ENDBRANCH  17  18
ENDBRANCH  16  17
ENDBRANCH   1  15
TORSDOF 17
ENDMDL
MODEL 7
REMARK VINA RESULT:      -5.9      1.855      3.582
REMARK  17 active torsions:
REMARK  status: ('A' for Active; 'I' for Inactive)
REMARK    1  A    between atoms: C_2  and  C_3 
REMARK    2  A    between atoms: C_3  and  C_4 
REMARK    3  A    between atoms: C_4  and  C_5 
REMARK    4  A    between atoms: C_5  and  C_6 
REMARK    5  A    between atoms: C_7  and  C_8 
REMARK    6  A    between atoms: C_8  and  C_9 
REMARK    7  A    between atoms: C_10  and  C_11 
REMARK    8  A    between atoms: C_11  and  C_12 
REMARK    9  A    between atoms: C_13  and  C_14 
REMARK   10  A    between atoms: C_14  and  C_15 
REMARK   11  A    between atoms: C_16  and  C_17 
REMARK   12  A    between atoms: C_17  and  C_18 
REMARK   13  A    between atoms: C_18  and  C_19 
REMARK   14  A    between atoms: C_19  and  C_20 
REMARK       I    between atoms: C_20  and  N_22 
REMARK   15  A    between atoms: N_22  and  C_23 
REMARK   16  A    between atoms: C_23  and  C_24 
REMARK   17  A    between atoms: C_24  and  O_25 
ROOT
HETATM    1  C   UNL     1     -23.082  -8.563   0.508  1.00  0.00     0.053 C 
ENDROOT
BRANCH   1   2
HETATM    2  C   UNL     1     -22.973  -9.742  -0.408  1.00  0.00    -0.027 C 
HETATM    3  C   UNL     1     -23.838 -10.768  -0.391  1.00  0.00    -0.027 C 
BRANCH   3   4
HETATM    4  C   UNL     1     -23.715 -11.957  -1.292  1.00  0.00     0.053 C 
BRANCH   4   5
HETATM    5  C   UNL     1     -22.731 -11.709  -2.393  1.00  0.00    -0.027 C 
HETATM    6  C   UNL     1     -22.914 -10.796  -3.357  1.00  0.00    -0.027 C 
BRANCH   6   7
HETATM    7  C   UNL     1     -21.931 -10.552  -4.458  1.00  0.00     0.053 C 
BRANCH   7   8
HETATM    8  C   UNL     1     -20.536 -10.448  -3.924  1.00  0.00    -0.027 C 
HETATM    9  C   UNL     1     -20.164  -9.551  -2.998  1.00  0.00    -0.030 C 
BRANCH   9  10
HETATM   10  C   UNL     1     -18.775  -9.471  -2.452  1.00  0.00     0.027 C 
BRANCH  10  11
HETATM   11  C   UNL     1     -17.746  -9.437  -3.580  1.00  0.00     0.004 C 
BRANCH  11  12
HETATM   12  C   UNL     1     -16.784 -10.617  -3.466  1.00  0.00    -0.000 C 
BRANCH  12  13
HETATM   13  C   UNL     1     -16.075 -10.621  -2.114  1.00  0.00    -0.005 C 
HETATM   14  C   UNL     1     -15.703 -12.033  -1.700  1.00  0.00     0.005 C 
ENDBRANCH  12  13
ENDBRANCH  11  12
ENDBRANCH  10  11
ENDBRANCH   9  10
ENDBRANCH   7   8
ENDBRANCH   6   7
ENDBRANCH   4   5
ENDBRANCH   3   4
ENDBRANCH   1   2
BRANCH   1  15
HETATM   15  C   UNL     1     -22.640  -7.310  -0.176  1.00  0.00    -0.027 C 
HETATM   16  C   UNL     1     -22.327  -7.257  -1.480  1.00  0.00    -0.030 C 
BRANCH  16  17
HETATM   17  C   UNL     1     -21.919  -5.995  -2.177  1.00  0.00     0.027 C 
BRANCH  17  18
HETATM   18  C   UNL     1     -21.178  -6.278  -3.479  1.00  0.00     0.013 C 
BRANCH  18  19
HETATM   19  C   UNL     1     -22.101  -6.723  -4.623  1.00  0.00     0.103 C 
BRANCH  19  20
HETATM   20  C   UNL     1     -21.419  -6.525  -5.960  1.00  0.00     0.217 C 
HETATM   21  O   UNL     1     -20.649  -7.349  -6.448  1.00  0.00    -0.274 OA
HETATM   22  N   UNL     1     -21.736  -5.352  -6.592  1.00  0.00    -0.359 N 
HETATM   23  H   UNL     1     -22.405  -4.712  -6.175  1.00  0.00     0.162 HD
BRANCH  22  24
HETATM   24  C   UNL     1     -21.118  -5.002  -7.865  1.00  0.00     0.148 C 
BRANCH  24  25
HETATM   25  C   UNL     1     -22.130  -4.411  -8.856  1.00  0.00     0.183 C 
BRANCH  25  26
HETATM   26  O   UNL     1     -21.448  -3.794  -9.946  1.00  0.00    -0.399 OA
HETATM   27  H   UNL     1     -21.970  -3.007 -10.180  1.00  0.00     0.209 HD
ENDBRANCH  25  26
ENDBRANCH  24  25
ENDBRANCH  22  24
ENDBRANCH  19  20
ENDBRANCH  18  19
ENDBRANCH  17  18
ENDBRANCH  16  17
ENDBRANCH   1  15
TORSDOF 17
ENDMDL
MODEL 8
REMARK VINA RESULT:      -5.8      2.445      4.944
REMARK  17 active torsions:
REMARK  status: ('A' for Active; 'I' for Inactive)
REMARK    1  A    between atoms: C_2  and  C_3 
REMARK    2  A    between atoms: C_3  and  C_4 
REMARK    3  A    between atoms: C_4  and  C_5 
REMARK    4  A    between atoms: C_5  and  C_6 
REMARK    5  A    between atoms: C_7  and  C_8 
REMARK    6  A    between atoms: C_8  and  C_9 
REMARK    7  A    between atoms: C_10  and  C_11 
REMARK    8  A    between atoms: C_11  and  C_12 
REMARK    9  A    between atoms: C_13  and  C_14 
REMARK   10  A    between atoms: C_14  and  C_15 
REMARK   11  A    between atoms: C_16  and  C_17 
REMARK   12  A    between atoms: C_17  and  C_18 
REMARK   13  A    between atoms: C_18  and  C_19 
REMARK   14  A    between atoms: C_19  and  C_20 
REMARK       I    between atoms: C_20  and  N_22 
REMARK   15  A    between atoms: N_22  and  C_23 
REMARK   16  A    between atoms: C_23  and  C_24 
REMARK   17  A    between atoms: C_24  and  O_25 
ROOT
HETATM    1  C   UNL     1     -22.183  -6.711  -4.996  1.00  0.00     0.053 C 
ENDROOT
BRANCH   1   2
HETATM    2  C   UNL     1     -21.732  -7.972  -4.328  1.00  0.00    -0.027 C 
HETATM    3  C   UNL     1     -20.620  -8.050  -3.580  1.00  0.00    -0.027 C 
BRANCH   3   4
HETATM    4  C   UNL     1     -20.157  -9.316  -2.931  1.00  0.00     0.053 C 
BRANCH   4   5
HETATM    5  C   UNL     1     -21.137  -9.794  -1.905  1.00  0.00    -0.027 C 
HETATM    6  C   UNL     1     -21.915  -8.973  -1.186  1.00  0.00    -0.027 C 
BRANCH   6   7
HETATM    7  C   UNL     1     -22.891  -9.451  -0.159  1.00  0.00     0.053 C 
BRANCH   7   8
HETATM    8  C   UNL     1     -23.012 -10.944  -0.182  1.00  0.00    -0.027 C 
HETATM    9  C   UNL     1     -22.274 -11.758   0.588  1.00  0.00    -0.030 C 
BRANCH   9  10
HETATM   10  C   UNL     1     -22.420 -13.246   0.576  1.00  0.00     0.027 C 
BRANCH  10  11
HETATM   11  C   UNL     1     -23.339 -13.713   1.702  1.00  0.00     0.004 C 
BRANCH  11  12
HETATM   12  C   UNL     1     -22.537 -14.415   2.795  1.00  0.00    -0.000 C 
BRANCH  12  13
HETATM   13  C   UNL     1     -23.334 -15.559   3.415  1.00  0.00    -0.005 C 
HETATM   14  C   UNL     1     -24.693 -15.079   3.893  1.00  0.00     0.005 C 
ENDBRANCH  12  13
ENDBRANCH  11  12
ENDBRANCH  10  11
ENDBRANCH   9  10
ENDBRANCH   7   8
ENDBRANCH   6   7
ENDBRANCH   4   5
ENDBRANCH   3   4
ENDBRANCH   1   2
BRANCH   1  15
HETATM   15  C   UNL     1     -21.015  -5.865  -5.391  1.00  0.00    -0.027 C 
HETATM   16  C   UNL     1     -20.992  -5.120  -6.507  1.00  0.00    -0.030 C 
BRANCH  16  17
HETATM   17  C   UNL     1     -19.838  -4.244  -6.886  1.00  0.00     0.027 C 
BRANCH  17  18
HETATM   18  C   UNL     1     -19.712  -4.092  -8.399  1.00  0.00     0.013 C 
BRANCH  18  19
HETATM   19  C   UNL     1     -20.573  -5.089  -9.186  1.00  0.00     0.103 C 
BRANCH  19  20
HETATM   20  C   UNL     1     -21.624  -4.357  -9.994  1.00  0.00     0.217 C 
HETATM   21  O   UNL     1     -21.366  -3.401 -10.720  1.00  0.00    -0.274 OA
HETATM   22  N   UNL     1     -22.893  -4.854  -9.856  1.00  0.00    -0.359 N 
HETATM   23  H   UNL     1     -23.063  -5.670  -9.276  1.00  0.00     0.162 HD
BRANCH  22  24
HETATM   24  C   UNL     1     -24.018  -4.221 -10.535  1.00  0.00     0.148 C 
BRANCH  24  25
HETATM   25  C   UNL     1     -24.695  -3.156  -9.661  1.00  0.00     0.183 C 
BRANCH  25  26
HETATM   26  O   UNL     1     -26.111  -3.321  -9.695  1.00  0.00    -0.399 OA
HETATM   27  H   UNL     1     -26.474  -2.667  -9.073  1.00  0.00     0.209 HD
ENDBRANCH  25  26
ENDBRANCH  24  25
ENDBRANCH  22  24
ENDBRANCH  19  20
ENDBRANCH  18  19
ENDBRANCH  17  18
ENDBRANCH  16  17
ENDBRANCH   1  15
TORSDOF 17
ENDMDL
MODEL 9
REMARK VINA RESULT:      -5.7     15.265     18.371
REMARK  17 active torsions:
REMARK  status: ('A' for Active; 'I' for Inactive)
REMARK    1  A    between atoms: C_2  and  C_3 
REMARK    2  A    between atoms: C_3  and  C_4 
REMARK    3  A    between atoms: C_4  and  C_5 
REMARK    4  A    between atoms: C_5  and  C_6 
REMARK    5  A    between atoms: C_7  and  C_8 
REMARK    6  A    between atoms: C_8  and  C_9 
REMARK    7  A    between atoms: C_10  and  C_11 
REMARK    8  A    between atoms: C_11  and  C_12 
REMARK    9  A    between atoms: C_13  and  C_14 
REMARK   10  A    between atoms: C_14  and  C_15 
REMARK   11  A    between atoms: C_16  and  C_17 
REMARK   12  A    between atoms: C_17  and  C_18 
REMARK   13  A    between atoms: C_18  and  C_19 
REMARK   14  A    between atoms: C_19  and  C_20 
REMARK       I    between atoms: C_20  and  N_22 
REMARK   15  A    between atoms: N_22  and  C_23 
REMARK   16  A    between atoms: C_23  and  C_24 
REMARK   17  A    between atoms: C_24  and  O_25 
ROOT
HETATM    1  C   UNL     1     -23.754   6.013  -1.513  1.00  0.00     0.053 C 
ENDROOT
BRANCH   1   2
HETATM    2  C   UNL     1     -24.762   6.218  -2.600  1.00  0.00    -0.027 C 
HETATM    3  C   UNL     1     -24.566   7.046  -3.638  1.00  0.00    -0.027 C 
BRANCH   3   4
HETATM    4  C   UNL     1     -25.584   7.267  -4.712  1.00  0.00     0.053 C 
BRANCH   4   5
HETATM    5  C   UNL     1     -25.368   6.343  -5.870  1.00  0.00    -0.027 C 
HETATM    6  C   UNL     1     -26.034   6.440  -7.029  1.00  0.00    -0.027 C 
BRANCH   6   7
HETATM    7  C   UNL     1     -25.819   5.514  -8.184  1.00  0.00     0.053 C 
BRANCH   7   8
HETATM    8  C   UNL     1     -26.026   6.220  -9.488  1.00  0.00    -0.027 C 
HETATM    9  C   UNL     1     -25.042   6.443 -10.372  1.00  0.00    -0.030 C 
BRANCH   9  10
HETATM   10  C   UNL     1     -25.264   7.126 -11.684  1.00  0.00     0.027 C 
BRANCH  10  11
HETATM   11  C   UNL     1     -23.961   7.717 -12.219  1.00  0.00     0.004 C 
BRANCH  11  12
HETATM   12  C   UNL     1     -23.693   9.084 -11.592  1.00  0.00    -0.000 C 
BRANCH  12  13
HETATM   13  C   UNL     1     -24.496  10.177 -12.292  1.00  0.00    -0.005 C 
HETATM   14  C   UNL     1     -23.622  10.962 -13.253  1.00  0.00     0.005 C 
ENDBRANCH  12  13
ENDBRANCH  11  12
ENDBRANCH  10  11
ENDBRANCH   9  10
ENDBRANCH   7   8
ENDBRANCH   6   7
ENDBRANCH   4   5
ENDBRANCH   3   4
ENDBRANCH   1   2
BRANCH   1  15
HETATM   15  C   UNL     1     -23.291   7.322  -0.957  1.00  0.00    -0.027 C 
HETATM   16  C   UNL     1     -23.996   8.029  -0.060  1.00  0.00    -0.030 C 
BRANCH  16  17
HETATM   17  C   UNL     1     -23.519   9.322   0.526  1.00  0.00     0.027 C 
BRANCH  17  18
HETATM   18  C   UNL     1     -23.112   9.168   1.988  1.00  0.00     0.013 C 
BRANCH  18  19
HETATM   19  C   UNL     1     -21.596   9.025   2.188  1.00  0.00     0.103 C 
BRANCH  19  20
HETATM   20  C   UNL     1     -21.230   9.261   3.638  1.00  0.00     0.217 C 
HETATM   21  O   UNL     1     -22.066   9.439   4.520  1.00  0.00    -0.274 OA
HETATM   22  N   UNL     1     -19.884   9.252   3.892  1.00  0.00    -0.359 N 
HETATM   23  H   UNL     1     -19.224   9.066   3.144  1.00  0.00     0.162 HD
BRANCH  22  24
HETATM   24  C   UNL     1     -19.379   9.515   5.235  1.00  0.00     0.148 C 
BRANCH  24  25
HETATM   25  C   UNL     1     -17.900   9.131   5.381  1.00  0.00     0.183 C 
BRANCH  25  26
HETATM   26  O   UNL     1     -17.155   9.610   4.263  1.00  0.00    -0.399 OA
HETATM   27  H   UNL     1     -17.772  10.149   3.738  1.00  0.00     0.209 HD
ENDBRANCH  25  26
ENDBRANCH  24  25
ENDBRANCH  22  24
ENDBRANCH  19  20
ENDBRANCH  18  19
ENDBRANCH  17  18
ENDBRANCH  16  17
ENDBRANCH   1  15
TORSDOF 17
ENDMDL
