REMARK  6 active torsions:
REMARK  status: ('A' for Active; 'I' for Inactive)
REMARK       I    between atoms: C_2  and  N_4 
REMARK    1  A    between atoms: N_4  and  C_5 
REMARK    2  A    between atoms: C_9  and  O_10 
REMARK    3  A    between atoms: O_10  and  C_11 
REMARK    4  A    between atoms: C_13  and  N_14 
REMARK    5  A    between atoms: N_17  and  C_18 
REMARK    6  A    between atoms: C_18  and  C_20 
ROOT
HETATM    1  C   UNL     1       9.860  -0.231   6.389  1.00  0.00     0.152 A 
HETATM    2  C   UNL     1      10.844   0.732   6.432  1.00  0.00     0.104 A 
HETATM    3  C   UNL     1      10.563   1.949   5.841  1.00  0.00     0.108 A 
HETATM    4  N   UNL     1       9.375   2.154   5.243  1.00  0.00    -0.339 N 
ATOM      5  HN  UNL     1       9.155   3.047   4.801  1.00  0.00     0.168 HD
HETATM    6  C   UNL     1       8.490   1.148   5.247  1.00  0.00     0.183 A 
HETATM    7  N   UNL     1       8.662  -0.047   5.812  1.00  0.00    -0.333 N 
ATOM      8  HN  UNL     1       7.939  -0.766   5.806  1.00  0.00     0.168 HD
ENDROOT
BRANCH   1   9
HETATM    9  O   UNL     1      10.145  -1.436   7.027  1.00  0.00    -0.291 OA
BRANCH   9  10
HETATM   10  C   UNL     1       9.488  -2.579   6.599  1.00  0.00     0.105 A 
HETATM   11  C   UNL     1       9.169  -3.588   7.547  1.00  0.00     0.085 A 
HETATM   12  N   UNL     1       9.414  -3.578   8.924  1.00  0.00    -0.333 N 
HETATM   13  C   UNL     1       8.552  -4.752   7.080  1.00  0.00     0.038 A 
HETATM   14  C   UNL     1       9.081  -4.739   9.438  1.00  0.00     0.152 C 
ATOM     15  HN  UNL     1       9.793  -2.790   9.448  1.00  0.00     0.168 HD
HETATM   16  S   UNL     1       8.284  -5.819   8.396  1.00  0.00    -0.052 SA
HETATM   17  C   UNL     1       8.239  -4.964   5.728  1.00  0.00     0.021 A 
HETATM   18  C   UNL     1       8.610  -3.987   4.808  1.00  0.00     0.004 A 
HETATM   19  C   UNL     1       9.244  -2.826   5.233  1.00  0.00     0.040 A 
BRANCH  14  20
HETATM   20  N   UNL     1       9.296  -5.049  10.761  1.00  0.00    -0.307 N 
HETATM   21  C   UNL     1       9.331  -6.328  11.278  1.00  0.00     0.219 C 
HETATM   22  C   UNL     1       9.551  -6.347  12.768  1.00  0.00     0.117 C 
HETATM   23  O   UNL     1       9.219  -7.383  10.662  1.00  0.00    -0.274 OA
HETATM   24  H   UNL     1       9.649  -4.278  11.310  1.00  0.00     0.171 HD
ENDBRANCH  14  20
ENDBRANCH   9  10
ENDBRANCH   1   9
BRANCH   3  25
HETATM   25  N   UNL     1      11.467   2.990   5.863  1.00  0.00    -0.364 N 
HETATM   26  C   UNL     1      10.972   4.372   5.824  1.00  0.00     0.154 C 
HETATM   27  C   UNL     1      11.662   5.185   4.708  1.00  0.00     0.293 C 
HETATM   28  N   UNL     1      13.150   5.147   4.740  1.00  0.00     0.100 N 
HETATM   29  C   UNL     1      13.514   3.705   4.639  1.00  0.00     0.293 C 
HETATM   30  C   UNL     1      12.911   2.781   5.732  1.00  0.00     0.154 C 
BRANCH  28  31
HETATM   31  C   UNL     1      13.722   5.795   5.953  1.00  0.00     0.252 C 
HETATM   32  C   UNL     1      15.263   5.790   5.923  1.00  0.00     0.048 C 
BRANCH  31  33
HETATM   33  C   UNL     1      13.246   7.238   6.160  1.00  0.00    -0.025 A 
HETATM   34  C   UNL     1      12.516   7.570   7.320  1.00  0.00     0.012 A 
HETATM   35  C   UNL     1      12.066   8.877   7.535  1.00  0.00     0.043 A 
HETATM   36  C   UNL     1      12.350   9.859   6.600  1.00  0.00     0.116 A 
HETATM   37  F   UNL     1      11.918  11.112   6.806  1.00  0.00    -0.206 F 
HETATM   38  C   UNL     1      13.074   9.562   5.450  1.00  0.00     0.043 A 
HETATM   39  C   UNL     1      13.517   8.253   5.228  1.00  0.00     0.012 A 
ENDBRANCH  31  33
ENDBRANCH  28  31
ENDBRANCH   3  25
TORSDOF 6
