MODEL 1
REMARK VINA RESULT:      -9.2      0.000      0.000
REMARK  6 active torsions:
REMARK  status: ('A' for Active; 'I' for Inactive)
REMARK       I    between atoms: C_2  and  N_4 
REMARK    1  A    between atoms: N_4  and  C_5 
REMARK    2  A    between atoms: C_9  and  O_10 
REMARK    3  A    between atoms: O_10  and  C_11 
REMARK    4  A    between atoms: C_13  and  N_14 
REMARK    5  A    between atoms: N_17  and  C_18 
REMARK    6  A    between atoms: C_18  and  C_20 
ROOT
HETATM    1  C   UNL     1     -21.368  -8.296  -1.701  1.00  0.00     0.152 A 
HETATM    2  C   UNL     1     -21.191  -7.820  -2.981  1.00  0.00     0.104 A 
HETATM    3  C   UNL     1     -21.622  -6.533  -3.241  1.00  0.00     0.108 A 
HETATM    4  N   UNL     1     -22.199  -5.802  -2.270  1.00  0.00    -0.339 N 
ATOM      5  HN  UNL     1     -22.523  -4.851  -2.448  1.00  0.00     0.168 HD
HETATM    6  C   UNL     1     -22.334  -6.363  -1.060  1.00  0.00     0.183 A 
HETATM    7  N   UNL     1     -21.928  -7.583  -0.711  1.00  0.00    -0.333 N 
ATOM      8  HN  UNL     1     -22.034  -7.947   0.236  1.00  0.00     0.168 HD
ENDROOT
BRANCH   1   9
HETATM    9  O   UNL     1     -20.890  -9.580  -1.447  1.00  0.00    -0.291 OA
BRANCH   9  10
HETATM   10  C   UNL     1     -21.805 -10.615  -1.344  1.00  0.00     0.105 A 
HETATM   11  C   UNL     1     -21.822 -11.624  -2.345  1.00  0.00     0.085 A 
HETATM   12  N   UNL     1     -20.986 -11.737  -3.461  1.00  0.00    -0.333 N 
HETATM   13  C   UNL     1     -22.788 -12.628  -2.244  1.00  0.00     0.038 A 
HETATM   14  C   UNL     1     -21.390 -12.735  -4.212  1.00  0.00     0.152 C 
ATOM     15  HN  UNL     1     -20.187 -11.137  -3.660  1.00  0.00     0.168 HD
HETATM   16  S   UNL     1     -22.622 -13.710  -3.565  1.00  0.00    -0.052 SA
HETATM   17  C   UNL     1     -23.733 -12.682  -1.208  1.00  0.00     0.021 A 
HETATM   18  C   UNL     1     -23.735 -11.654  -0.268  1.00  0.00     0.004 A 
HETATM   19  C   UNL     1     -22.802 -10.627  -0.349  1.00  0.00     0.040 A 
BRANCH  14  20
HETATM   20  N   UNL     1     -20.809 -13.027  -5.425  1.00  0.00    -0.307 N 
HETATM   21  C   UNL     1     -20.536 -12.105  -6.414  1.00  0.00     0.219 C 
HETATM   22  C   UNL     1     -19.930 -12.731  -7.642  1.00  0.00     0.117 C 
HETATM   23  O   UNL     1     -20.721 -10.893  -6.373  1.00  0.00    -0.274 OA
HETATM   24  H   UNL     1     -20.387 -13.944  -5.466  1.00  0.00     0.171 HD
ENDBRANCH  14  20
ENDBRANCH   9  10
ENDBRANCH   1   9
BRANCH   3  25
HETATM   25  N   UNL     1     -21.456  -5.950  -4.480  1.00  0.00    -0.364 N 
HETATM   26  C   UNL     1     -22.371  -6.311  -5.571  1.00  0.00     0.154 C 
HETATM   27  C   UNL     1     -21.596  -6.739  -6.835  1.00  0.00     0.293 C 
HETATM   28  N   UNL     1     -20.568  -5.766  -7.295  1.00  0.00     0.100 N 
HETATM   29  C   UNL     1     -19.637  -5.596  -6.143  1.00  0.00     0.293 C 
HETATM   30  C   UNL     1     -20.290  -5.129  -4.814  1.00  0.00     0.154 C 
BRANCH  28  31
HETATM   31  C   UNL     1     -21.152  -4.473  -7.749  1.00  0.00     0.252 C 
HETATM   32  C   UNL     1     -20.077  -3.375  -7.862  1.00  0.00     0.048 C 
BRANCH  31  33
HETATM   33  C   UNL     1     -21.888  -4.571  -9.091  1.00  0.00    -0.025 A 
HETATM   34  C   UNL     1     -23.284  -4.769  -9.107  1.00  0.00     0.012 A 
HETATM   35  C   UNL     1     -23.982  -4.865 -10.316  1.00  0.00     0.043 A 
HETATM   36  C   UNL     1     -23.292  -4.754 -11.512  1.00  0.00     0.116 A 
HETATM   37  F   UNL     1     -23.962  -4.846 -12.671  1.00  0.00    -0.206 F 
HETATM   38  C   UNL     1     -21.916  -4.551 -11.527  1.00  0.00     0.043 A 
HETATM   39  C   UNL     1     -21.215  -4.464 -10.319  1.00  0.00     0.012 A 
ENDBRANCH  31  33
ENDBRANCH  28  31
ENDBRANCH   3  25
TORSDOF 6
ENDMDL
MODEL 2
REMARK VINA RESULT:      -8.8      2.504      3.190
REMARK  6 active torsions:
REMARK  status: ('A' for Active; 'I' for Inactive)
REMARK       I    between atoms: C_2  and  N_4 
REMARK    1  A    between atoms: N_4  and  C_5 
REMARK    2  A    between atoms: C_9  and  O_10 
REMARK    3  A    between atoms: O_10  and  C_11 
REMARK    4  A    between atoms: C_13  and  N_14 
REMARK    5  A    between atoms: N_17  and  C_18 
REMARK    6  A    between atoms: C_18  and  C_20 
ROOT
HETATM    1  C   UNL     1     -21.344  -8.521  -1.435  1.00  0.00     0.152 A 
HETATM    2  C   UNL     1     -21.275  -8.036  -2.722  1.00  0.00     0.104 A 
HETATM    3  C   UNL     1     -21.741  -6.753  -2.939  1.00  0.00     0.108 A 
HETATM    4  N   UNL     1     -22.248  -6.035  -1.921  1.00  0.00    -0.339 N 
ATOM      5  HN  UNL     1     -22.597  -5.087  -2.067  1.00  0.00     0.168 HD
HETATM    6  C   UNL     1     -22.279  -6.603  -0.708  1.00  0.00     0.183 A 
HETATM    7  N   UNL     1     -21.831  -7.820  -0.399  1.00  0.00    -0.333 N 
ATOM      8  HN  UNL     1     -21.857  -8.189   0.551  1.00  0.00     0.168 HD
ENDROOT
BRANCH   1   9
HETATM    9  O   UNL     1     -20.830  -9.799  -1.227  1.00  0.00    -0.291 OA
BRANCH   9  10
HETATM   10  C   UNL     1     -21.644 -10.746  -0.624  1.00  0.00     0.105 A 
HETATM   11  C   UNL     1     -21.066 -11.956  -0.155  1.00  0.00     0.085 A 
HETATM   12  N   UNL     1     -19.720 -12.334  -0.195  1.00  0.00    -0.333 N 
HETATM   13  C   UNL     1     -21.918 -12.914   0.402  1.00  0.00     0.038 A 
HETATM   14  C   UNL     1     -19.599 -13.571   0.226  1.00  0.00     0.152 C 
ATOM     15  HN  UNL     1     -18.952 -11.740  -0.503  1.00  0.00     0.168 HD
HETATM   16  S   UNL     1     -20.999 -14.282   0.876  1.00  0.00    -0.052 SA
HETATM   17  C   UNL     1     -23.305 -12.733   0.515  1.00  0.00     0.021 A 
HETATM   18  C   UNL     1     -23.859 -11.564  -0.001  1.00  0.00     0.004 A 
HETATM   19  C   UNL     1     -23.046 -10.598  -0.581  1.00  0.00     0.040 A 
BRANCH  14  20
HETATM   20  N   UNL     1     -18.397 -14.240   0.213  1.00  0.00    -0.307 N 
HETATM   21  C   UNL     1     -17.194 -13.713   0.636  1.00  0.00     0.219 C 
HETATM   22  C   UNL     1     -16.046 -14.675   0.467  1.00  0.00     0.117 C 
HETATM   23  O   UNL     1     -16.996 -12.603   1.119  1.00  0.00    -0.274 OA
HETATM   24  H   UNL     1     -18.485 -15.237   0.073  1.00  0.00     0.171 HD
ENDBRANCH  14  20
ENDBRANCH   9  10
ENDBRANCH   1   9
BRANCH   3  25
HETATM   25  N   UNL     1     -21.682  -6.163  -4.184  1.00  0.00    -0.364 N 
HETATM   26  C   UNL     1     -22.531  -6.680  -5.265  1.00  0.00     0.154 C 
HETATM   27  C   UNL     1     -21.704  -6.986  -6.532  1.00  0.00     0.293 C 
HETATM   28  N   UNL     1     -20.854  -5.859  -7.007  1.00  0.00     0.100 N 
HETATM   29  C   UNL     1     -19.957  -5.527  -5.864  1.00  0.00     0.293 C 
HETATM   30  C   UNL     1     -20.670  -5.162  -4.533  1.00  0.00     0.154 C 
BRANCH  28  31
HETATM   31  C   UNL     1     -21.648  -4.686  -7.467  1.00  0.00     0.252 C 
HETATM   32  C   UNL     1     -21.158  -3.380  -6.811  1.00  0.00     0.048 C 
BRANCH  31  33
HETATM   33  C   UNL     1     -21.639  -4.497  -8.989  1.00  0.00    -0.025 A 
HETATM   34  C   UNL     1     -22.849  -4.579  -9.707  1.00  0.00     0.012 A 
HETATM   35  C   UNL     1     -22.872  -4.414 -11.096  1.00  0.00     0.043 A 
HETATM   36  C   UNL     1     -21.690  -4.158 -11.772  1.00  0.00     0.116 A 
HETATM   37  F   UNL     1     -21.711  -4.001 -13.104  1.00  0.00    -0.206 F 
HETATM   38  C   UNL     1     -20.482  -4.066 -11.089  1.00  0.00     0.043 A 
HETATM   39  C   UNL     1     -20.456  -4.240  -9.700  1.00  0.00     0.012 A 
ENDBRANCH  31  33
ENDBRANCH  28  31
ENDBRANCH   3  25
TORSDOF 6
ENDMDL
MODEL 3
REMARK VINA RESULT:      -8.7      1.769      2.071
REMARK  6 active torsions:
REMARK  status: ('A' for Active; 'I' for Inactive)
REMARK       I    between atoms: C_2  and  N_4 
REMARK    1  A    between atoms: N_4  and  C_5 
REMARK    2  A    between atoms: C_9  and  O_10 
REMARK    3  A    between atoms: O_10  and  C_11 
REMARK    4  A    between atoms: C_13  and  N_14 
REMARK    5  A    between atoms: N_17  and  C_18 
REMARK    6  A    between atoms: C_18  and  C_20 
ROOT
HETATM    1  C   UNL     1     -21.133  -8.475  -1.436  1.00  0.00     0.152 A 
HETATM    2  C   UNL     1     -21.067  -7.977  -2.719  1.00  0.00     0.104 A 
HETATM    3  C   UNL     1     -21.679  -6.762  -2.957  1.00  0.00     0.108 A 
HETATM    4  N   UNL     1     -22.318  -6.118  -1.963  1.00  0.00    -0.339 N 
ATOM      5  HN  UNL     1     -22.776  -5.221  -2.125  1.00  0.00     0.168 HD
HETATM    6  C   UNL     1     -22.333  -6.693  -0.753  1.00  0.00     0.183 A 
HETATM    7  N   UNL     1     -21.751  -7.846  -0.424  1.00  0.00    -0.333 N 
ATOM      8  HN  UNL     1     -21.773  -8.221   0.524  1.00  0.00     0.168 HD
ENDROOT
BRANCH   1   9
HETATM    9  O   UNL     1     -20.473  -9.680  -1.205  1.00  0.00    -0.291 OA
BRANCH   9  10
HETATM   10  C   UNL     1     -20.989 -10.832  -1.777  1.00  0.00     0.105 A 
HETATM   11  C   UNL     1     -20.197 -11.553  -2.712  1.00  0.00     0.085 A 
HETATM   12  N   UNL     1     -18.897 -11.262  -3.138  1.00  0.00    -0.333 N 
HETATM   13  C   UNL     1     -20.761 -12.682  -3.312  1.00  0.00     0.038 A 
HETATM   14  C   UNL     1     -18.552 -12.091  -4.095  1.00  0.00     0.152 C 
ATOM     15  HN  UNL     1     -18.308 -10.520  -2.762  1.00  0.00     0.168 HD
HETATM   16  S   UNL     1     -19.630 -13.367  -4.405  1.00  0.00    -0.052 SA
HETATM   17  C   UNL     1     -22.062 -13.130  -3.033  1.00  0.00     0.021 A 
HETATM   18  C   UNL     1     -22.840 -12.378  -2.156  1.00  0.00     0.004 A 
HETATM   19  C   UNL     1     -22.321 -11.237  -1.557  1.00  0.00     0.040 A 
BRANCH  14  20
HETATM   20  N   UNL     1     -17.357 -11.985  -4.767  1.00  0.00    -0.307 N 
HETATM   21  C   UNL     1     -16.917 -10.855  -5.426  1.00  0.00     0.219 C 
HETATM   22  C   UNL     1     -15.584 -11.056  -6.098  1.00  0.00     0.117 C 
HETATM   23  O   UNL     1     -17.480  -9.767  -5.494  1.00  0.00    -0.274 OA
HETATM   24  H   UNL     1     -16.706 -12.731  -4.565  1.00  0.00     0.171 HD
ENDBRANCH  14  20
ENDBRANCH   9  10
ENDBRANCH   1   9
BRANCH   3  25
HETATM   25  N   UNL     1     -21.638  -6.161  -4.198  1.00  0.00    -0.364 N 
HETATM   26  C   UNL     1     -22.511  -6.663  -5.267  1.00  0.00     0.154 C 
HETATM   27  C   UNL     1     -21.709  -6.964  -6.552  1.00  0.00     0.293 C 
HETATM   28  N   UNL     1     -20.859  -5.840  -7.033  1.00  0.00     0.100 N 
HETATM   29  C   UNL     1     -19.939  -5.524  -5.903  1.00  0.00     0.293 C 
HETATM   30  C   UNL     1     -20.626  -5.165  -4.557  1.00  0.00     0.154 C 
BRANCH  28  31
HETATM   31  C   UNL     1     -21.653  -4.657  -7.469  1.00  0.00     0.252 C 
HETATM   32  C   UNL     1     -21.112  -3.354  -6.848  1.00  0.00     0.048 C 
BRANCH  31  33
HETATM   33  C   UNL     1     -21.707  -4.483  -8.991  1.00  0.00    -0.025 A 
HETATM   34  C   UNL     1     -20.526  -4.180  -9.700  1.00  0.00     0.012 A 
HETATM   35  C   UNL     1     -20.545  -4.012 -11.088  1.00  0.00     0.043 A 
HETATM   36  C   UNL     1     -21.739  -4.155 -11.776  1.00  0.00     0.116 A 
HETATM   37  F   UNL     1     -21.758  -3.993 -13.108  1.00  0.00    -0.206 F 
HETATM   38  C   UNL     1     -22.919  -4.460 -11.105  1.00  0.00     0.043 A 
HETATM   39  C   UNL     1     -22.904  -4.619  -9.714  1.00  0.00     0.012 A 
ENDBRANCH  31  33
ENDBRANCH  28  31
ENDBRANCH   3  25
TORSDOF 6
ENDMDL
MODEL 4
REMARK VINA RESULT:      -8.5      2.651      3.305
REMARK  6 active torsions:
REMARK  status: ('A' for Active; 'I' for Inactive)
REMARK       I    between atoms: C_2  and  N_4 
REMARK    1  A    between atoms: N_4  and  C_5 
REMARK    2  A    between atoms: C_9  and  O_10 
REMARK    3  A    between atoms: O_10  and  C_11 
REMARK    4  A    between atoms: C_13  and  N_14 
REMARK    5  A    between atoms: N_17  and  C_18 
REMARK    6  A    between atoms: C_18  and  C_20 
ROOT
HETATM    1  C   UNL     1     -21.200  -9.216   0.347  1.00  0.00     0.152 A 
HETATM    2  C   UNL     1     -20.884  -8.916  -0.959  1.00  0.00     0.104 A 
HETATM    3  C   UNL     1     -21.501  -7.814  -1.521  1.00  0.00     0.108 A 
HETATM    4  N   UNL     1     -22.380  -7.090  -0.804  1.00  0.00    -0.339 N 
ATOM      5  HN  UNL     1     -22.844  -6.276  -1.207  1.00  0.00     0.168 HD
HETATM    6  C   UNL     1     -22.626  -7.473   0.456  1.00  0.00     0.183 A 
HETATM    7  N   UNL     1     -22.062  -8.502   1.088  1.00  0.00    -0.333 N 
ATOM      8  HN  UNL     1     -22.270  -8.729   2.061  1.00  0.00     0.168 HD
ENDROOT
BRANCH   1   9
HETATM    9  O   UNL     1     -20.537 -10.304   0.910  1.00  0.00    -0.291 OA
BRANCH   9  10
HETATM   10  C   UNL     1     -20.869 -11.576   0.471  1.00  0.00     0.105 A 
HETATM   11  C   UNL     1     -19.922 -12.312  -0.291  1.00  0.00     0.085 A 
HETATM   12  N   UNL     1     -18.629 -11.924  -0.656  1.00  0.00    -0.333 N 
HETATM   13  C   UNL     1     -20.301 -13.572  -0.764  1.00  0.00     0.038 A 
HETATM   14  C   UNL     1     -18.110 -12.824  -1.458  1.00  0.00     0.152 C 
ATOM     15  HN  UNL     1     -18.161 -11.072  -0.348  1.00  0.00     0.168 HD
HETATM   16  S   UNL     1     -19.008 -14.252  -1.663  1.00  0.00    -0.052 SA
HETATM   17  C   UNL     1     -21.564 -14.133  -0.521  1.00  0.00     0.021 A 
HETATM   18  C   UNL     1     -22.496 -13.373   0.180  1.00  0.00     0.004 A 
HETATM   19  C   UNL     1     -22.162 -12.108   0.648  1.00  0.00     0.040 A 
BRANCH  14  20
HETATM   20  N   UNL     1     -16.878 -12.664  -2.049  1.00  0.00    -0.307 N 
HETATM   21  C   UNL     1     -16.418 -11.491  -2.612  1.00  0.00     0.219 C 
HETATM   22  C   UNL     1     -15.043 -11.634  -3.212  1.00  0.00     0.117 C 
HETATM   23  O   UNL     1     -16.992 -10.408  -2.649  1.00  0.00    -0.274 OA
HETATM   24  H   UNL     1     -16.229 -13.412  -1.852  1.00  0.00     0.171 HD
ENDBRANCH  14  20
ENDBRANCH   9  10
ENDBRANCH   1   9
BRANCH   3  25
HETATM   25  N   UNL     1     -21.224  -7.409  -2.810  1.00  0.00    -0.364 N 
HETATM   26  C   UNL     1     -21.956  -6.270  -3.377  1.00  0.00     0.154 C 
HETATM   27  C   UNL     1     -22.577  -6.626  -4.745  1.00  0.00     0.293 C 
HETATM   28  N   UNL     1     -21.621  -7.197  -5.733  1.00  0.00     0.100 N 
HETATM   29  C   UNL     1     -21.055  -8.413  -5.082  1.00  0.00     0.293 C 
HETATM   30  C   UNL     1     -20.365  -8.182  -3.710  1.00  0.00     0.154 C 
BRANCH  28  31
HETATM   31  C   UNL     1     -20.567  -6.230  -6.147  1.00  0.00     0.252 C 
HETATM   32  C   UNL     1     -19.245  -6.946  -6.486  1.00  0.00     0.048 C 
BRANCH  31  33
HETATM   33  C   UNL     1     -20.968  -5.361  -7.346  1.00  0.00    -0.025 A 
HETATM   34  C   UNL     1     -20.080  -5.222  -8.432  1.00  0.00     0.012 A 
HETATM   35  C   UNL     1     -20.417  -4.434  -9.538  1.00  0.00     0.043 A 
HETATM   36  C   UNL     1     -21.644  -3.790  -9.569  1.00  0.00     0.116 A 
HETATM   37  F   UNL     1     -21.966  -3.034 -10.629  1.00  0.00    -0.206 F 
HETATM   38  C   UNL     1     -22.542  -3.915  -8.515  1.00  0.00     0.043 A 
HETATM   39  C   UNL     1     -22.204  -4.695  -7.403  1.00  0.00     0.012 A 
ENDBRANCH  31  33
ENDBRANCH  28  31
ENDBRANCH   3  25
TORSDOF 6
ENDMDL
MODEL 5
REMARK VINA RESULT:      -8.4      2.143      3.019
REMARK  6 active torsions:
REMARK  status: ('A' for Active; 'I' for Inactive)
REMARK       I    between atoms: C_2  and  N_4 
REMARK    1  A    between atoms: N_4  and  C_5 
REMARK    2  A    between atoms: C_9  and  O_10 
REMARK    3  A    between atoms: O_10  and  C_11 
REMARK    4  A    between atoms: C_13  and  N_14 
REMARK    5  A    between atoms: N_17  and  C_18 
REMARK    6  A    between atoms: C_18  and  C_20 
ROOT
HETATM    1  C   UNL     1     -20.494  -8.834  -1.946  1.00  0.00     0.152 A 
HETATM    2  C   UNL     1     -20.541  -8.171  -3.152  1.00  0.00     0.104 A 
HETATM    3  C   UNL     1     -21.284  -7.007  -3.205  1.00  0.00     0.108 A 
HETATM    4  N   UNL     1     -21.936  -6.569  -2.112  1.00  0.00    -0.339 N 
ATOM      5  HN  UNL     1     -22.490  -5.712  -2.137  1.00  0.00     0.168 HD
HETATM    6  C   UNL     1     -21.834  -7.294  -0.989  1.00  0.00     0.183 A 
HETATM    7  N   UNL     1     -21.122  -8.411  -0.838  1.00  0.00    -0.333 N 
ATOM      8  HN  UNL     1     -21.060  -8.905   0.052  1.00  0.00     0.168 HD
ENDROOT
BRANCH   1   9
HETATM    9  O   UNL     1     -19.705  -9.981  -1.901  1.00  0.00    -0.291 OA
BRANCH   9  10
HETATM   10  C   UNL     1     -18.656 -10.095  -2.800  1.00  0.00     0.105 A 
HETATM   11  C   UNL     1     -18.768 -11.011  -3.879  1.00  0.00     0.085 A 
HETATM   12  N   UNL     1     -19.852 -11.837  -4.193  1.00  0.00    -0.333 N 
HETATM   13  C   UNL     1     -17.676 -11.143  -4.741  1.00  0.00     0.038 A 
HETATM   14  C   UNL     1     -19.530 -12.625  -5.193  1.00  0.00     0.152 C 
ATOM     15  HN  UNL     1     -20.755 -11.829  -3.719  1.00  0.00     0.168 HD
HETATM   16  S   UNL     1     -18.040 -12.309  -5.945  1.00  0.00    -0.052 SA
HETATM   17  C   UNL     1     -16.485 -10.416  -4.585  1.00  0.00     0.021 A 
HETATM   18  C   UNL     1     -16.375  -9.565  -3.489  1.00  0.00     0.004 A 
HETATM   19  C   UNL     1     -17.433  -9.424  -2.599  1.00  0.00     0.040 A 
BRANCH  14  20
HETATM   20  N   UNL     1     -20.373 -13.607  -5.659  1.00  0.00    -0.307 N 
HETATM   21  C   UNL     1     -21.591 -13.381  -6.267  1.00  0.00     0.219 C 
HETATM   22  C   UNL     1     -22.301 -14.656  -6.639  1.00  0.00     0.117 C 
HETATM   23  O   UNL     1     -22.104 -12.296  -6.526  1.00  0.00    -0.274 OA
HETATM   24  H   UNL     1     -19.942 -14.518  -5.727  1.00  0.00     0.171 HD
ENDBRANCH  14  20
ENDBRANCH   9  10
ENDBRANCH   1   9
BRANCH   3  25
HETATM   25  N   UNL     1     -21.364  -6.251  -4.355  1.00  0.00    -0.364 N 
HETATM   26  C   UNL     1     -22.084  -6.786  -5.518  1.00  0.00     0.154 C 
HETATM   27  C   UNL     1     -21.218  -6.723  -6.793  1.00  0.00     0.293 C 
HETATM   28  N   UNL     1     -20.641  -5.383  -7.088  1.00  0.00     0.100 N 
HETATM   29  C   UNL     1     -19.833  -5.024  -5.888  1.00  0.00     0.293 C 
HETATM   30  C   UNL     1     -20.601  -5.014  -4.538  1.00  0.00     0.154 C 
BRANCH  28  31
HETATM   31  C   UNL     1     -21.677  -4.360  -7.403  1.00  0.00     0.252 C 
HETATM   32  C   UNL     1     -21.128  -2.929  -7.237  1.00  0.00     0.048 C 
BRANCH  31  33
HETATM   33  C   UNL     1     -22.262  -4.494  -8.814  1.00  0.00    -0.025 A 
HETATM   34  C   UNL     1     -21.408  -4.410  -9.932  1.00  0.00     0.012 A 
HETATM   35  C   UNL     1     -21.913  -4.525 -11.232  1.00  0.00     0.043 A 
HETATM   36  C   UNL     1     -23.269  -4.735 -11.420  1.00  0.00     0.116 A 
HETATM   37  F   UNL     1     -23.754  -4.845 -12.666  1.00  0.00    -0.206 F 
HETATM   38  C   UNL     1     -24.135  -4.829 -10.336  1.00  0.00     0.043 A 
HETATM   39  C   UNL     1     -23.633  -4.704  -9.035  1.00  0.00     0.012 A 
ENDBRANCH  31  33
ENDBRANCH  28  31
ENDBRANCH   3  25
TORSDOF 6
ENDMDL
MODEL 6
REMARK VINA RESULT:      -8.3      1.602      2.249
REMARK  6 active torsions:
REMARK  status: ('A' for Active; 'I' for Inactive)
REMARK       I    between atoms: C_2  and  N_4 
REMARK    1  A    between atoms: N_4  and  C_5 
REMARK    2  A    between atoms: C_9  and  O_10 
REMARK    3  A    between atoms: O_10  and  C_11 
REMARK    4  A    between atoms: C_13  and  N_14 
REMARK    5  A    between atoms: N_17  and  C_18 
REMARK    6  A    between atoms: C_18  and  C_20 
ROOT
HETATM    1  C   UNL     1     -21.022  -9.926  -0.453  1.00  0.00     0.152 A 
HETATM    2  C   UNL     1     -20.865  -9.423  -1.726  1.00  0.00     0.104 A 
HETATM    3  C   UNL     1     -21.254  -8.114  -1.940  1.00  0.00     0.108 A 
HETATM    4  N   UNL     1     -21.773  -7.388  -0.933  1.00  0.00    -0.339 N 
ATOM      5  HN  UNL     1     -22.066  -6.421  -1.077  1.00  0.00     0.168 HD
HETATM    6  C   UNL     1     -21.893  -7.975   0.266  1.00  0.00     0.183 A 
HETATM    7  N   UNL     1     -21.523  -9.218   0.571  1.00  0.00    -0.333 N 
ATOM      8  HN  UNL     1     -21.615  -9.603   1.512  1.00  0.00     0.168 HD
ENDROOT
BRANCH   1   9
HETATM    9  O   UNL     1     -20.585 -11.232  -0.246  1.00  0.00    -0.291 OA
BRANCH   9  10
HETATM   10  C   UNL     1     -21.535 -12.239  -0.163  1.00  0.00     0.105 A 
HETATM   11  C   UNL     1     -21.900 -12.942  -1.343  1.00  0.00     0.085 A 
HETATM   12  N   UNL     1     -21.392 -12.771  -2.634  1.00  0.00    -0.333 N 
HETATM   13  C   UNL     1     -22.897 -13.917  -1.240  1.00  0.00     0.038 A 
HETATM   14  C   UNL     1     -22.064 -13.523  -3.474  1.00  0.00     0.152 C 
ATOM     15  HN  UNL     1     -20.619 -12.156  -2.885  1.00  0.00     0.168 HD
HETATM   16  S   UNL     1     -23.173 -14.610  -2.784  1.00  0.00    -0.052 SA
HETATM   17  C   UNL     1     -23.545 -14.226  -0.034  1.00  0.00     0.021 A 
HETATM   18  C   UNL     1     -23.212 -13.487   1.098  1.00  0.00     0.004 A 
HETATM   19  C   UNL     1     -22.241 -12.495   1.029  1.00  0.00     0.040 A 
BRANCH  14  20
HETATM   20  N   UNL     1     -21.843 -13.493  -4.832  1.00  0.00    -0.307 N 
HETATM   21  C   UNL     1     -21.130 -12.515  -5.495  1.00  0.00     0.219 C 
HETATM   22  C   UNL     1     -21.088 -12.736  -6.985  1.00  0.00     0.117 C 
HETATM   23  O   UNL     1     -20.553 -11.551  -5.002  1.00  0.00    -0.274 OA
HETATM   24  H   UNL     1     -22.054 -14.363  -5.300  1.00  0.00     0.171 HD
ENDBRANCH  14  20
ENDBRANCH   9  10
ENDBRANCH   1   9
BRANCH   3  25
HETATM   25  N   UNL     1     -21.104  -7.506  -3.168  1.00  0.00    -0.364 N 
HETATM   26  C   UNL     1     -21.923  -6.332  -3.493  1.00  0.00     0.154 C 
HETATM   27  C   UNL     1     -22.646  -6.508  -4.846  1.00  0.00     0.293 C 
HETATM   28  N   UNL     1     -21.758  -6.876  -5.983  1.00  0.00     0.100 N 
HETATM   29  C   UNL     1     -21.095  -8.147  -5.574  1.00  0.00     0.293 C 
HETATM   30  C   UNL     1     -20.298  -8.091  -4.242  1.00  0.00     0.154 C 
BRANCH  28  31
HETATM   31  C   UNL     1     -20.779  -5.807  -6.326  1.00  0.00     0.252 C 
HETATM   32  C   UNL     1     -19.359  -6.378  -6.505  1.00  0.00     0.048 C 
BRANCH  31  33
HETATM   33  C   UNL     1     -21.149  -5.019  -7.588  1.00  0.00    -0.025 A 
HETATM   34  C   UNL     1     -20.230  -4.946  -8.656  1.00  0.00     0.012 A 
HETATM   35  C   UNL     1     -20.538  -4.233  -9.819  1.00  0.00     0.043 A 
HETATM   36  C   UNL     1     -21.764  -3.598  -9.927  1.00  0.00     0.116 A 
HETATM   37  F   UNL     1     -22.059  -2.913 -11.042  1.00  0.00    -0.206 F 
HETATM   38  C   UNL     1     -22.693  -3.659  -8.892  1.00  0.00     0.043 A 
HETATM   39  C   UNL     1     -22.383  -4.364  -7.724  1.00  0.00     0.012 A 
ENDBRANCH  31  33
ENDBRANCH  28  31
ENDBRANCH   3  25
TORSDOF 6
ENDMDL
MODEL 7
REMARK VINA RESULT:      -8.3      2.996      3.712
REMARK  6 active torsions:
REMARK  status: ('A' for Active; 'I' for Inactive)
REMARK       I    between atoms: C_2  and  N_4 
REMARK    1  A    between atoms: N_4  and  C_5 
REMARK    2  A    between atoms: C_9  and  O_10 
REMARK    3  A    between atoms: O_10  and  C_11 
REMARK    4  A    between atoms: C_13  and  N_14 
REMARK    5  A    between atoms: N_17  and  C_18 
REMARK    6  A    between atoms: C_18  and  C_20 
ROOT
HETATM    1  C   UNL     1     -20.122  -9.867  -2.860  1.00  0.00     0.152 A 
HETATM    2  C   UNL     1     -20.225  -9.003  -3.928  1.00  0.00     0.104 A 
HETATM    3  C   UNL     1     -20.890  -7.810  -3.714  1.00  0.00     0.108 A 
HETATM    4  N   UNL     1     -21.417  -7.535  -2.507  1.00  0.00    -0.339 N 
ATOM      5  HN  UNL     1     -21.912  -6.660  -2.336  1.00  0.00     0.168 HD
HETATM    6  C   UNL     1     -21.271  -8.448  -1.537  1.00  0.00     0.183 A 
HETATM    7  N   UNL     1     -20.626  -9.610  -1.643  1.00  0.00    -0.333 N 
ATOM      8  HN  UNL     1     -20.524 -10.254  -0.859  1.00  0.00     0.168 HD
ENDROOT
BRANCH   1   9
HETATM    9  O   UNL     1     -19.412 -11.044  -3.082  1.00  0.00    -0.291 OA
BRANCH   9  10
HETATM   10  C   UNL     1     -18.036 -10.965  -3.232  1.00  0.00     0.105 A 
HETATM   11  C   UNL     1     -17.450 -11.372  -4.460  1.00  0.00     0.085 A 
HETATM   12  N   UNL     1     -18.101 -11.841  -5.606  1.00  0.00    -0.333 N 
HETATM   13  C   UNL     1     -16.057 -11.329  -4.566  1.00  0.00     0.038 A 
HETATM   14  C   UNL     1     -17.211 -12.227  -6.490  1.00  0.00     0.152 C 
ATOM     15  HN  UNL     1     -19.112 -11.877  -5.735  1.00  0.00     0.168 HD
HETATM   16  S   UNL     1     -15.589 -11.879  -6.122  1.00  0.00    -0.052 SA
HETATM   17  C   UNL     1     -15.222 -10.907  -3.520  1.00  0.00     0.021 A 
HETATM   18  C   UNL     1     -15.812 -10.565  -2.306  1.00  0.00     0.004 A 
HETATM   19  C   UNL     1     -17.193 -10.616  -2.158  1.00  0.00     0.040 A 
BRANCH  14  20
HETATM   20  N   UNL     1     -17.563 -12.817  -7.682  1.00  0.00    -0.307 N 
HETATM   21  C   UNL     1     -18.442 -13.873  -7.813  1.00  0.00     0.219 C 
HETATM   22  C   UNL     1     -18.601 -14.324  -9.241  1.00  0.00     0.117 C 
HETATM   23  O   UNL     1     -19.074 -14.429  -6.921  1.00  0.00    -0.274 OA
HETATM   24  H   UNL     1     -17.301 -12.281  -8.497  1.00  0.00     0.171 HD
ENDBRANCH  14  20
ENDBRANCH   9  10
ENDBRANCH   1   9
BRANCH   3  25
HETATM   25  N   UNL     1     -21.014  -6.863  -4.709  1.00  0.00    -0.364 N 
HETATM   26  C   UNL     1     -21.136  -7.300  -6.105  1.00  0.00     0.154 C 
HETATM   27  C   UNL     1     -20.108  -6.587  -7.009  1.00  0.00     0.293 C 
HETATM   28  N   UNL     1     -20.113  -5.102  -6.907  1.00  0.00     0.100 N 
HETATM   29  C   UNL     1     -19.847  -4.800  -5.472  1.00  0.00     0.293 C 
HETATM   30  C   UNL     1     -20.839  -5.431  -4.457  1.00  0.00     0.154 C 
BRANCH  28  31
HETATM   31  C   UNL     1     -21.382  -4.491  -7.391  1.00  0.00     0.252 C 
HETATM   32  C   UNL     1     -21.608  -3.095  -6.778  1.00  0.00     0.048 C 
BRANCH  31  33
HETATM   33  C   UNL     1     -21.461  -4.368  -8.918  1.00  0.00    -0.025 A 
HETATM   34  C   UNL     1     -22.710  -4.485  -9.562  1.00  0.00     0.012 A 
HETATM   35  C   UNL     1     -22.812  -4.381 -10.953  1.00  0.00     0.043 A 
HETATM   36  C   UNL     1     -21.672  -4.149 -11.706  1.00  0.00     0.116 A 
HETATM   37  F   UNL     1     -21.770  -4.049 -13.040  1.00  0.00    -0.206 F 
HETATM   38  C   UNL     1     -20.428  -4.022 -11.097  1.00  0.00     0.043 A 
HETATM   39  C   UNL     1     -20.322  -4.136  -9.706  1.00  0.00     0.012 A 
ENDBRANCH  31  33
ENDBRANCH  28  31
ENDBRANCH   3  25
TORSDOF 6
ENDMDL
MODEL 8
REMARK VINA RESULT:      -8.1      3.435      4.405
REMARK  6 active torsions:
REMARK  status: ('A' for Active; 'I' for Inactive)
REMARK       I    between atoms: C_2  and  N_4 
REMARK    1  A    between atoms: N_4  and  C_5 
REMARK    2  A    between atoms: C_9  and  O_10 
REMARK    3  A    between atoms: O_10  and  C_11 
REMARK    4  A    between atoms: C_13  and  N_14 
REMARK    5  A    between atoms: N_17  and  C_18 
REMARK    6  A    between atoms: C_18  and  C_20 
ROOT
HETATM    1  C   UNL     1     -20.475  -9.243  -2.338  1.00  0.00     0.152 A 
HETATM    2  C   UNL     1     -20.567  -8.484  -3.484  1.00  0.00     0.104 A 
HETATM    3  C   UNL     1     -21.174  -7.247  -3.375  1.00  0.00     0.108 A 
HETATM    4  N   UNL     1     -21.658  -6.832  -2.190  1.00  0.00    -0.339 N 
ATOM      5  HN  UNL     1     -22.110  -5.922  -2.096  1.00  0.00     0.168 HD
HETATM    6  C   UNL     1     -21.528  -7.651  -1.138  1.00  0.00     0.183 A 
HETATM    7  N   UNL     1     -20.937  -8.846  -1.142  1.00  0.00    -0.333 N 
ATOM      8  HN  UNL     1     -20.843  -9.414  -0.301  1.00  0.00     0.168 HD
ENDROOT
BRANCH   1   9
HETATM    9  O   UNL     1     -19.823 -10.468  -2.458  1.00  0.00    -0.291 OA
BRANCH   9  10
HETATM   10  C   UNL     1     -18.437 -10.482  -2.427  1.00  0.00     0.105 A 
HETATM   11  C   UNL     1     -17.775 -11.404  -1.572  1.00  0.00     0.085 A 
HETATM   12  N   UNL     1     -18.353 -12.365  -0.736  1.00  0.00    -0.333 N 
HETATM   13  C   UNL     1     -16.379 -11.362  -1.522  1.00  0.00     0.038 A 
HETATM   14  C   UNL     1     -17.419 -12.942  -0.018  1.00  0.00     0.152 C 
ATOM     15  HN  UNL     1     -19.348 -12.583  -0.692  1.00  0.00     0.168 HD
HETATM   16  S   UNL     1     -15.815 -12.547  -0.418  1.00  0.00    -0.052 SA
HETATM   17  C   UNL     1     -15.612 -10.456  -2.272  1.00  0.00     0.021 A 
HETATM   18  C   UNL     1     -16.282  -9.524  -3.060  1.00  0.00     0.004 A 
HETATM   19  C   UNL     1     -17.671  -9.522  -3.118  1.00  0.00     0.040 A 
BRANCH  14  20
HETATM   20  N   UNL     1     -17.705 -13.868   0.959  1.00  0.00    -0.307 N 
HETATM   21  C   UNL     1     -18.330 -15.079   0.741  1.00  0.00     0.219 C 
HETATM   22  C   UNL     1     -18.537 -15.862   2.011  1.00  0.00     0.117 C 
HETATM   23  O   UNL     1     -18.694 -15.546  -0.333  1.00  0.00    -0.274 OA
HETATM   24  H   UNL     1     -17.227 -13.701   1.833  1.00  0.00     0.171 HD
ENDBRANCH  14  20
ENDBRANCH   9  10
ENDBRANCH   1   9
BRANCH   3  25
HETATM   25  N   UNL     1     -21.282  -6.397  -4.455  1.00  0.00    -0.364 N 
HETATM   26  C   UNL     1     -21.906  -6.883  -5.692  1.00  0.00     0.154 C 
HETATM   27  C   UNL     1     -21.002  -6.623  -6.917  1.00  0.00     0.293 C 
HETATM   28  N   UNL     1     -20.542  -5.215  -7.063  1.00  0.00     0.100 N 
HETATM   29  C   UNL     1     -19.816  -4.900  -5.800  1.00  0.00     0.293 C 
HETATM   30  C   UNL     1     -20.631  -5.085  -4.491  1.00  0.00     0.154 C 
BRANCH  28  31
HETATM   31  C   UNL     1     -21.657  -4.264  -7.331  1.00  0.00     0.252 C 
HETATM   32  C   UNL     1     -21.208  -2.801  -7.150  1.00  0.00     0.048 C 
BRANCH  31  33
HETATM   33  C   UNL     1     -22.269  -4.414  -8.729  1.00  0.00    -0.025 A 
HETATM   34  C   UNL     1     -21.429  -4.385  -9.862  1.00  0.00     0.012 A 
HETATM   35  C   UNL     1     -21.958  -4.516 -11.151  1.00  0.00     0.043 A 
HETATM   36  C   UNL     1     -23.323  -4.686 -11.314  1.00  0.00     0.116 A 
HETATM   37  F   UNL     1     -23.830  -4.811 -12.549  1.00  0.00    -0.206 F 
HETATM   38  C   UNL     1     -24.174  -4.725 -10.214  1.00  0.00     0.043 A 
HETATM   39  C   UNL     1     -23.649  -4.585  -8.925  1.00  0.00     0.012 A 
ENDBRANCH  31  33
ENDBRANCH  28  31
ENDBRANCH   3  25
TORSDOF 6
ENDMDL
MODEL 9
REMARK VINA RESULT:      -8.1      2.869      3.480
REMARK  6 active torsions:
REMARK  status: ('A' for Active; 'I' for Inactive)
REMARK       I    between atoms: C_2  and  N_4 
REMARK    1  A    between atoms: N_4  and  C_5 
REMARK    2  A    between atoms: C_9  and  O_10 
REMARK    3  A    between atoms: O_10  and  C_11 
REMARK    4  A    between atoms: C_13  and  N_14 
REMARK    5  A    between atoms: N_17  and  C_18 
REMARK    6  A    between atoms: C_18  and  C_20 
ROOT
HETATM    1  C   UNL     1     -20.396 -10.367  -0.976  1.00  0.00     0.152 A 
HETATM    2  C   UNL     1     -20.385  -9.722  -2.193  1.00  0.00     0.104 A 
HETATM    3  C   UNL     1     -20.828  -8.414  -2.218  1.00  0.00     0.108 A 
HETATM    4  N   UNL     1     -21.260  -7.822  -1.089  1.00  0.00    -0.339 N 
ATOM      5  HN  UNL     1     -21.591  -6.857  -1.093  1.00  0.00     0.168 HD
HETATM    6  C   UNL     1     -21.240  -8.541   0.042  1.00  0.00     0.183 A 
HETATM    7  N   UNL     1     -20.808  -9.796   0.167  1.00  0.00    -0.333 N 
ATOM      8  HN  UNL     1     -20.791 -10.284   1.062  1.00  0.00     0.168 HD
ENDROOT
BRANCH   1   9
HETATM    9  O   UNL     1     -19.906 -11.671  -0.962  1.00  0.00    -0.291 OA
BRANCH   9  10
HETATM   10  C   UNL     1     -18.533 -11.859  -0.983  1.00  0.00     0.105 A 
HETATM   11  C   UNL     1     -17.892 -12.130  -2.222  1.00  0.00     0.085 A 
HETATM   12  N   UNL     1     -18.477 -12.212  -3.489  1.00  0.00    -0.333 N 
HETATM   13  C   UNL     1     -16.514 -12.364  -2.207  1.00  0.00     0.038 A 
HETATM   14  C   UNL     1     -17.577 -12.596  -4.364  1.00  0.00     0.152 C 
ATOM     15  HN  UNL     1     -19.453 -12.006  -3.701  1.00  0.00     0.168 HD
HETATM   16  S   UNL     1     -15.975 -12.682  -3.804  1.00  0.00    -0.052 SA
HETATM   17  C   UNL     1     -15.746 -12.345  -1.032  1.00  0.00     0.021 A 
HETATM   18  C   UNL     1     -16.402 -12.133   0.177  1.00  0.00     0.004 A 
HETATM   19  C   UNL     1     -17.774 -11.917   0.204  1.00  0.00     0.040 A 
BRANCH  14  20
HETATM   20  N   UNL     1     -17.889 -12.850  -5.680  1.00  0.00    -0.307 N 
HETATM   21  C   UNL     1     -18.438 -11.933  -6.554  1.00  0.00     0.219 C 
HETATM   22  C   UNL     1     -18.699 -12.514  -7.918  1.00  0.00     0.117 C 
HETATM   23  O   UNL     1     -18.699 -10.755  -6.329  1.00  0.00    -0.274 OA
HETATM   24  H   UNL     1     -17.486 -13.703  -6.040  1.00  0.00     0.171 HD
ENDBRANCH  14  20
ENDBRANCH   9  10
ENDBRANCH   1   9
BRANCH   3  25
HETATM   25  N   UNL     1     -20.822  -7.670  -3.379  1.00  0.00    -0.364 N 
HETATM   26  C   UNL     1     -21.591  -6.420  -3.436  1.00  0.00     0.154 C 
HETATM   27  C   UNL     1     -22.523  -6.389  -4.666  1.00  0.00     0.293 C 
HETATM   28  N   UNL     1     -21.848  -6.665  -5.964  1.00  0.00     0.100 N 
HETATM   29  C   UNL     1     -21.227  -8.011  -5.812  1.00  0.00     0.293 C 
HETATM   30  C   UNL     1     -20.234  -8.164  -4.627  1.00  0.00     0.154 C 
BRANCH  28  31
HETATM   31  C   UNL     1     -20.856  -5.619  -6.338  1.00  0.00     0.252 C 
HETATM   32  C   UNL     1     -19.433  -6.202  -6.445  1.00  0.00     0.048 C 
BRANCH  31  33
HETATM   33  C   UNL     1     -21.187  -4.901  -7.652  1.00  0.00    -0.025 A 
HETATM   34  C   UNL     1     -22.471  -4.349  -7.839  1.00  0.00     0.012 A 
HETATM   35  C   UNL     1     -22.803  -3.691  -9.028  1.00  0.00     0.043 A 
HETATM   36  C   UNL     1     -21.854  -3.573 -10.030  1.00  0.00     0.116 A 
HETATM   37  F   UNL     1     -22.172  -2.943 -11.171  1.00  0.00    -0.206 F 
HETATM   38  C   UNL     1     -20.577  -4.102  -9.871  1.00  0.00     0.043 A 
HETATM   39  C   UNL     1     -20.246  -4.769  -8.686  1.00  0.00     0.012 A 
ENDBRANCH  31  33
ENDBRANCH  28  31
ENDBRANCH   3  25
TORSDOF 6
ENDMDL
