REMARK  19 active torsions:
REMARK  status: ('A' for Active; 'I' for Inactive)
REMARK    1  A    between atoms: C_2  and  C_3 
REMARK    2  A    between atoms: C_3  and  C_4 
REMARK    3  A    between atoms: C_4  and  C_5 
REMARK    4  A    between atoms: C_5  and  C_6 
REMARK    5  A    between atoms: C_7  and  C_8 
REMARK    6  A    between atoms: C_8  and  C_9 
REMARK    7  A    between atoms: C_10  and  C_11 
REMARK    8  A    between atoms: C_11  and  C_12 
REMARK    9  A    between atoms: C_13  and  C_14 
REMARK   10  A    between atoms: C_14  and  C_15 
REMARK   11  A    between atoms: C_16  and  C_17 
REMARK   12  A    between atoms: C_17  and  C_18 
REMARK   13  A    between atoms: C_18  and  C_19 
REMARK   14  A    between atoms: C_19  and  C_20 
REMARK       I    between atoms: C_20  and  N_22 
REMARK   15  A    between atoms: N_22  and  C_23 
REMARK   16  A    between atoms: C_23  and  C_24 
REMARK   17  A    between atoms: C_24  and  C_25 
REMARK   18  A    between atoms: C_28  and  O_29 
REMARK   19  A    between atoms: C_30  and  O_31 
ROOT
HETATM    1  C   UNL     1      16.150  12.510  -1.366  1.00  0.00     0.013 C 
ENDROOT
BRANCH   1   2
HETATM    2  C   UNL     1      16.612  11.649  -0.194  1.00  0.00     0.027 C 
BRANCH   2   3
HETATM    3  C   UNL     1      16.098  10.245  -0.295  1.00  0.00    -0.030 C 
HETATM    4  C   UNL     1      15.306   9.685   0.631  1.00  0.00    -0.027 C 
BRANCH   4   5
HETATM    5  C   UNL     1      14.777   8.288   0.530  1.00  0.00     0.053 C 
BRANCH   5   6
HETATM    6  C   UNL     1      13.279   8.275   0.533  1.00  0.00    -0.027 C 
HETATM    7  C   UNL     1      12.550   7.636   1.463  1.00  0.00    -0.027 C 
BRANCH   7   8
HETATM    8  C   UNL     1      11.054   7.605   1.469  1.00  0.00     0.053 C 
BRANCH   8   9
HETATM    9  C   UNL     1      10.509   8.189   2.735  1.00  0.00    -0.027 C 
HETATM   10  C   UNL     1       9.739   7.502   3.593  1.00  0.00    -0.027 C 
BRANCH  10  11
HETATM   11  C   UNL     1       9.189   8.084   4.856  1.00  0.00     0.053 C 
BRANCH  11  12
HETATM   12  C   UNL     1       7.695   8.033   4.859  1.00  0.00    -0.027 C 
HETATM   13  C   UNL     1       6.982   7.373   5.783  1.00  0.00    -0.030 C 
BRANCH  13  14
HETATM   14  C   UNL     1       5.488   7.331   5.783  1.00  0.00     0.027 C 
BRANCH  14  15
HETATM   15  C   UNL     1       4.937   7.943   7.066  1.00  0.00     0.004 C 
BRANCH  15  16
HETATM   16  C   UNL     1       3.414   7.911   7.057  1.00  0.00    -0.000 C 
BRANCH  16  17
HETATM   17  C   UNL     1       2.853   8.520   8.336  1.00  0.00    -0.005 C 
HETATM   18  C   UNL     1       1.337   8.485   8.322  1.00  0.00     0.005 C 
ENDBRANCH  16  17
ENDBRANCH  15  16
ENDBRANCH  14  15
ENDBRANCH  13  14
ENDBRANCH  11  12
ENDBRANCH  10  11
ENDBRANCH   8   9
ENDBRANCH   7   8
ENDBRANCH   5   6
ENDBRANCH   4   5
ENDBRANCH   2   3
ENDBRANCH   1   2
BRANCH   1  19
HETATM   19  C   UNL     1      14.625  12.642  -1.464  1.00  0.00     0.103 C 
BRANCH  19  20
HETATM   20  C   UNL     1      14.242  13.519  -2.643  1.00  0.00     0.217 C 
HETATM   21  O   UNL     1      15.072  14.036  -3.388  1.00  0.00    -0.274 OA
HETATM   22  N   UNL     1      12.885  13.687  -2.824  1.00  0.00    -0.361 N 
HETATM   23  H   UNL     1      12.228  13.250  -2.201  1.00  0.00     0.162 HD
BRANCH  22  24
HETATM   24  C   UNL     1      12.417  14.518  -3.932  1.00  0.00     0.127 C 
BRANCH  24  25
HETATM   25  C   UNL     1      10.896  14.627  -4.011  1.00  0.00     0.058 C 
BRANCH  25  26
HETATM   26  C   UNL     1      10.445  15.490  -5.166  1.00  0.00    -0.054 A 
HETATM   27  C   UNL     1      10.214  14.942  -6.438  1.00  0.00     0.010 A 
HETATM   28  C   UNL     1       9.808  15.755  -7.507  1.00  0.00     0.040 A 
HETATM   29  C   UNL     1       9.630  17.120  -7.298  1.00  0.00     0.098 A 
HETATM   30  C   UNL     1       9.859  17.668  -6.039  1.00  0.00     0.099 A 
HETATM   31  C   UNL     1      10.273  16.870  -4.982  1.00  0.00     0.046 A 
BRANCH  29  32
HETATM   32  O   UNL     1       9.231  17.961  -8.301  1.00  0.00    -0.358 OA
HETATM   33  H   UNL     1       9.121  17.437  -9.113  1.00  0.00     0.217 HD
ENDBRANCH  29  32
BRANCH  30  34
HETATM   34  O   UNL     1       9.676  19.002  -5.817  1.00  0.00    -0.358 OA
HETATM   35  H   UNL     1       9.374  19.367  -6.672  1.00  0.00     0.217 HD
ENDBRANCH  30  34
ENDBRANCH  25  26
ENDBRANCH  24  25
ENDBRANCH  22  24
ENDBRANCH  19  20
ENDBRANCH   1  19
TORSDOF 19
