MODEL 1
REMARK VINA RESULT:      -8.3      0.000      0.000
REMARK  19 active torsions:
REMARK  status: ('A' for Active; 'I' for Inactive)
REMARK    1  A    between atoms: C_2  and  C_3 
REMARK    2  A    between atoms: C_3  and  C_4 
REMARK    3  A    between atoms: C_4  and  C_5 
REMARK    4  A    between atoms: C_5  and  C_6 
REMARK    5  A    between atoms: C_7  and  C_8 
REMARK    6  A    between atoms: C_8  and  C_9 
REMARK    7  A    between atoms: C_10  and  C_11 
REMARK    8  A    between atoms: C_11  and  C_12 
REMARK    9  A    between atoms: C_13  and  C_14 
REMARK   10  A    between atoms: C_14  and  C_15 
REMARK   11  A    between atoms: C_16  and  C_17 
REMARK   12  A    between atoms: C_17  and  C_18 
REMARK   13  A    between atoms: C_18  and  C_19 
REMARK   14  A    between atoms: C_19  and  C_20 
REMARK       I    between atoms: C_20  and  N_22 
REMARK   15  A    between atoms: N_22  and  C_23 
REMARK   16  A    between atoms: C_23  and  C_24 
REMARK   17  A    between atoms: C_24  and  C_25 
REMARK   18  A    between atoms: C_28  and  O_29 
REMARK   19  A    between atoms: C_30  and  O_31 
ROOT
HETATM    1  C   UNL     1     -21.402  -6.023  -3.365  1.00  0.00     0.013 C 
ENDROOT
BRANCH   1   2
HETATM    2  C   UNL     1     -22.127  -6.094  -2.025  1.00  0.00     0.027 C 
BRANCH   2   3
HETATM    3  C   UNL     1     -21.712  -7.293  -1.227  1.00  0.00    -0.030 C 
HETATM    4  C   UNL     1     -22.279  -7.630  -0.060  1.00  0.00    -0.027 C 
BRANCH   4   5
HETATM    5  C   UNL     1     -21.879  -8.834   0.736  1.00  0.00     0.053 C 
BRANCH   5   6
HETATM    6  C   UNL     1     -22.315 -10.098   0.060  1.00  0.00    -0.027 C 
HETATM    7  C   UNL     1     -23.601 -10.395  -0.187  1.00  0.00    -0.027 C 
BRANCH   7   8
HETATM    8  C   UNL     1     -24.049 -11.660  -0.849  1.00  0.00     0.053 C 
BRANCH   8   9
HETATM    9  C   UNL     1     -23.197 -11.976  -2.038  1.00  0.00    -0.027 C 
HETATM   10  C   UNL     1     -23.085 -11.166  -3.102  1.00  0.00    -0.027 C 
BRANCH  10  11
HETATM   11  C   UNL     1     -22.238 -11.481  -4.293  1.00  0.00     0.053 C 
BRANCH  11  12
HETATM   12  C   UNL     1     -21.090 -10.529  -4.397  1.00  0.00    -0.027 C 
HETATM   13  C   UNL     1     -20.505  -9.961  -3.332  1.00  0.00    -0.030 C 
BRANCH  13  14
HETATM   14  C   UNL     1     -19.354  -9.014  -3.443  1.00  0.00     0.027 C 
BRANCH  14  15
HETATM   15  C   UNL     1     -18.542  -9.306  -4.700  1.00  0.00     0.004 C 
BRANCH  15  16
HETATM   16  C   UNL     1     -17.170  -9.853  -4.330  1.00  0.00    -0.000 C 
BRANCH  16  17
HETATM   17  C   UNL     1     -16.864  -9.596  -2.859  1.00  0.00    -0.005 C 
HETATM   18  C   UNL     1     -15.648 -10.390  -2.422  1.00  0.00     0.005 C 
ENDBRANCH  16  17
ENDBRANCH  15  16
ENDBRANCH  14  15
ENDBRANCH  13  14
ENDBRANCH  11  12
ENDBRANCH  10  11
ENDBRANCH   8   9
ENDBRANCH   7   8
ENDBRANCH   5   6
ENDBRANCH   4   5
ENDBRANCH   2   3
ENDBRANCH   1   2
BRANCH   1  19
HETATM   19  C   UNL     1     -22.109  -6.798  -4.485  1.00  0.00     0.103 C 
BRANCH  19  20
HETATM   20  C   UNL     1     -21.308  -6.721  -5.772  1.00  0.00     0.217 C 
HETATM   21  O   UNL     1     -21.339  -7.599  -6.632  1.00  0.00    -0.274 OA
HETATM   22  N   UNL     1     -20.543  -5.581  -5.913  1.00  0.00    -0.361 N 
HETATM   23  H   UNL     1     -20.539  -4.877  -5.195  1.00  0.00     0.162 HD
BRANCH  22  24
HETATM   24  C   UNL     1     -19.733  -5.417  -7.118  1.00  0.00     0.127 C 
BRANCH  24  25
HETATM   25  C   UNL     1     -19.939  -4.072  -7.812  1.00  0.00     0.058 C 
BRANCH  25  26
HETATM   26  C   UNL     1     -21.105  -4.098  -8.772  1.00  0.00    -0.054 A 
HETATM   27  C   UNL     1     -22.428  -4.175  -8.310  1.00  0.00     0.010 A 
HETATM   28  C   UNL     1     -23.503  -4.211  -9.212  1.00  0.00     0.040 A 
HETATM   29  C   UNL     1     -23.248  -4.167 -10.580  1.00  0.00     0.098 A 
HETATM   30  C   UNL     1     -21.937  -4.092 -11.043  1.00  0.00     0.099 A 
HETATM   31  C   UNL     1     -20.871  -4.069 -10.155  1.00  0.00     0.046 A 
BRANCH  29  32
HETATM   32  O   UNL     1     -24.255  -4.195 -11.506  1.00  0.00    -0.358 OA
HETATM   33  H   UNL     1     -24.952  -3.580 -11.218  1.00  0.00     0.217 HD
ENDBRANCH  29  32
BRANCH  30  34
HETATM   34  O   UNL     1     -21.674  -4.036 -12.381  1.00  0.00    -0.358 OA
HETATM   35  H   UNL     1     -22.252  -4.711 -12.787  1.00  0.00     0.217 HD
ENDBRANCH  30  34
ENDBRANCH  25  26
ENDBRANCH  24  25
ENDBRANCH  22  24
ENDBRANCH  19  20
ENDBRANCH   1  19
TORSDOF 19
ENDMDL
MODEL 2
REMARK VINA RESULT:      -8.0      1.200      1.739
REMARK  19 active torsions:
REMARK  status: ('A' for Active; 'I' for Inactive)
REMARK    1  A    between atoms: C_2  and  C_3 
REMARK    2  A    between atoms: C_3  and  C_4 
REMARK    3  A    between atoms: C_4  and  C_5 
REMARK    4  A    between atoms: C_5  and  C_6 
REMARK    5  A    between atoms: C_7  and  C_8 
REMARK    6  A    between atoms: C_8  and  C_9 
REMARK    7  A    between atoms: C_10  and  C_11 
REMARK    8  A    between atoms: C_11  and  C_12 
REMARK    9  A    between atoms: C_13  and  C_14 
REMARK   10  A    between atoms: C_14  and  C_15 
REMARK   11  A    between atoms: C_16  and  C_17 
REMARK   12  A    between atoms: C_17  and  C_18 
REMARK   13  A    between atoms: C_18  and  C_19 
REMARK   14  A    between atoms: C_19  and  C_20 
REMARK       I    between atoms: C_20  and  N_22 
REMARK   15  A    between atoms: N_22  and  C_23 
REMARK   16  A    between atoms: C_23  and  C_24 
REMARK   17  A    between atoms: C_24  and  C_25 
REMARK   18  A    between atoms: C_28  and  O_29 
REMARK   19  A    between atoms: C_30  and  O_31 
ROOT
HETATM    1  C   UNL     1     -21.387  -6.834  -3.293  1.00  0.00     0.013 C 
ENDROOT
BRANCH   1   2
HETATM    2  C   UNL     1     -22.156  -6.027  -2.250  1.00  0.00     0.027 C 
BRANCH   2   3
HETATM    3  C   UNL     1     -22.234  -6.743  -0.936  1.00  0.00    -0.030 C 
HETATM    4  C   UNL     1     -21.779  -7.991  -0.752  1.00  0.00    -0.027 C 
BRANCH   4   5
HETATM    5  C   UNL     1     -21.841  -8.708   0.561  1.00  0.00     0.053 C 
BRANCH   5   6
HETATM    6  C   UNL     1     -22.146 -10.162   0.370  1.00  0.00    -0.027 C 
HETATM    7  C   UNL     1     -23.238 -10.607  -0.274  1.00  0.00    -0.027 C 
BRANCH   7   8
HETATM    8  C   UNL     1     -23.559 -12.057  -0.459  1.00  0.00     0.053 C 
BRANCH   8   9
HETATM    9  C   UNL     1     -23.390 -12.467  -1.889  1.00  0.00    -0.027 C 
HETATM   10  C   UNL     1     -22.639 -11.784  -2.768  1.00  0.00    -0.027 C 
BRANCH  10  11
HETATM   11  C   UNL     1     -22.472 -12.189  -4.198  1.00  0.00     0.053 C 
BRANCH  11  12
HETATM   12  C   UNL     1     -21.307 -11.485  -4.817  1.00  0.00    -0.027 C 
HETATM   13  C   UNL     1     -20.934 -10.242  -4.482  1.00  0.00    -0.030 C 
BRANCH  13  14
HETATM   14  C   UNL     1     -19.764  -9.547  -5.101  1.00  0.00     0.027 C 
BRANCH  14  15
HETATM   15  C   UNL     1     -18.541  -9.655  -4.198  1.00  0.00     0.004 C 
BRANCH  15  16
HETATM   16  C   UNL     1     -18.961  -9.669  -2.734  1.00  0.00    -0.000 C 
BRANCH  16  17
HETATM   17  C   UNL     1     -18.282 -10.810  -1.987  1.00  0.00    -0.005 C 
HETATM   18  C   UNL     1     -19.299 -11.602  -1.187  1.00  0.00     0.005 C 
ENDBRANCH  16  17
ENDBRANCH  15  16
ENDBRANCH  14  15
ENDBRANCH  13  14
ENDBRANCH  11  12
ENDBRANCH  10  11
ENDBRANCH   8   9
ENDBRANCH   7   8
ENDBRANCH   5   6
ENDBRANCH   4   5
ENDBRANCH   2   3
ENDBRANCH   1   2
BRANCH   1  19
HETATM   19  C   UNL     1     -21.872  -6.596  -4.729  1.00  0.00     0.103 C 
BRANCH  19  20
HETATM   20  C   UNL     1     -20.878  -5.738  -5.491  1.00  0.00     0.217 C 
HETATM   21  O   UNL     1     -20.304  -4.774  -4.987  1.00  0.00    -0.274 OA
HETATM   22  N   UNL     1     -20.656  -6.128  -6.795  1.00  0.00    -0.361 N 
HETATM   23  H   UNL     1     -21.136  -6.923  -7.180  1.00  0.00     0.162 HD
BRANCH  22  24
HETATM   24  C   UNL     1     -19.716  -5.361  -7.612  1.00  0.00     0.127 C 
BRANCH  24  25
HETATM   25  C   UNL     1     -20.292  -4.045  -8.128  1.00  0.00     0.058 C 
BRANCH  25  26
HETATM   26  C   UNL     1     -21.214  -4.249  -9.307  1.00  0.00    -0.054 A 
HETATM   27  C   UNL     1     -20.722  -4.269 -10.622  1.00  0.00     0.010 A 
HETATM   28  C   UNL     1     -21.589  -4.446 -11.711  1.00  0.00     0.040 A 
HETATM   29  C   UNL     1     -22.953  -4.608 -11.478  1.00  0.00     0.098 A 
HETATM   30  C   UNL     1     -23.445  -4.588 -10.177  1.00  0.00     0.099 A 
HETATM   31  C   UNL     1     -22.593  -4.400  -9.098  1.00  0.00     0.046 A 
BRANCH  29  32
HETATM   32  O   UNL     1     -23.846  -4.789 -12.500  1.00  0.00    -0.358 OA
HETATM   33  H   UNL     1     -24.699  -4.407 -12.230  1.00  0.00     0.217 HD
ENDBRANCH  29  32
BRANCH  30  34
HETATM   34  O   UNL     1     -24.778  -4.757  -9.934  1.00  0.00    -0.358 OA
HETATM   35  H   UNL     1     -25.045  -5.519 -10.485  1.00  0.00     0.217 HD
ENDBRANCH  30  34
ENDBRANCH  25  26
ENDBRANCH  24  25
ENDBRANCH  22  24
ENDBRANCH  19  20
ENDBRANCH   1  19
TORSDOF 19
ENDMDL
MODEL 3
REMARK VINA RESULT:      -7.7      1.616      3.122
REMARK  19 active torsions:
REMARK  status: ('A' for Active; 'I' for Inactive)
REMARK    1  A    between atoms: C_2  and  C_3 
REMARK    2  A    between atoms: C_3  and  C_4 
REMARK    3  A    between atoms: C_4  and  C_5 
REMARK    4  A    between atoms: C_5  and  C_6 
REMARK    5  A    between atoms: C_7  and  C_8 
REMARK    6  A    between atoms: C_8  and  C_9 
REMARK    7  A    between atoms: C_10  and  C_11 
REMARK    8  A    between atoms: C_11  and  C_12 
REMARK    9  A    between atoms: C_13  and  C_14 
REMARK   10  A    between atoms: C_14  and  C_15 
REMARK   11  A    between atoms: C_16  and  C_17 
REMARK   12  A    between atoms: C_17  and  C_18 
REMARK   13  A    between atoms: C_18  and  C_19 
REMARK   14  A    between atoms: C_19  and  C_20 
REMARK       I    between atoms: C_20  and  N_22 
REMARK   15  A    between atoms: N_22  and  C_23 
REMARK   16  A    between atoms: C_23  and  C_24 
REMARK   17  A    between atoms: C_24  and  C_25 
REMARK   18  A    between atoms: C_28  and  O_29 
REMARK   19  A    between atoms: C_30  and  O_31 
ROOT
HETATM    1  C   UNL     1     -21.327  -6.636  -3.106  1.00  0.00     0.013 C 
ENDROOT
BRANCH   1   2
HETATM    2  C   UNL     1     -22.148  -6.072  -1.951  1.00  0.00     0.027 C 
BRANCH   2   3
HETATM    3  C   UNL     1     -22.379  -7.093  -0.878  1.00  0.00    -0.030 C 
HETATM    4  C   UNL     1     -21.388  -7.785  -0.298  1.00  0.00    -0.027 C 
BRANCH   4   5
HETATM    5  C   UNL     1     -21.610  -8.796   0.784  1.00  0.00     0.053 C 
BRANCH   5   6
HETATM    6  C   UNL     1     -21.370 -10.187   0.282  1.00  0.00    -0.027 C 
HETATM    7  C   UNL     1     -20.379 -10.973   0.736  1.00  0.00    -0.027 C 
BRANCH   7   8
HETATM    8  C   UNL     1     -20.122 -12.358   0.233  1.00  0.00     0.053 C 
BRANCH   8   9
HETATM    9  C   UNL     1     -18.715 -12.499  -0.259  1.00  0.00    -0.027 C 
HETATM   10  C   UNL     1     -17.639 -12.333   0.525  1.00  0.00    -0.027 C 
BRANCH  10  11
HETATM   11  C   UNL     1     -16.232 -12.468   0.034  1.00  0.00     0.053 C 
BRANCH  11  12
HETATM   12  C   UNL     1     -15.947 -11.474  -1.045  1.00  0.00    -0.027 C 
HETATM   13  C   UNL     1     -16.133 -11.727  -2.348  1.00  0.00    -0.030 C 
BRANCH  13  14
HETATM   14  C   UNL     1     -15.851 -10.726  -3.422  1.00  0.00     0.027 C 
BRANCH  14  15
HETATM   15  C   UNL     1     -16.340  -9.344  -3.004  1.00  0.00     0.004 C 
BRANCH  15  16
HETATM   16  C   UNL     1     -17.841  -9.370  -2.744  1.00  0.00    -0.000 C 
BRANCH  16  17
HETATM   17  C   UNL     1     -18.618  -9.260  -4.051  1.00  0.00    -0.005 C 
HETATM   18  C   UNL     1     -19.552 -10.443  -4.215  1.00  0.00     0.005 C 
ENDBRANCH  16  17
ENDBRANCH  15  16
ENDBRANCH  14  15
ENDBRANCH  13  14
ENDBRANCH  11  12
ENDBRANCH  10  11
ENDBRANCH   8   9
ENDBRANCH   7   8
ENDBRANCH   5   6
ENDBRANCH   4   5
ENDBRANCH   2   3
ENDBRANCH   1   2
BRANCH   1  19
HETATM   19  C   UNL     1     -22.153  -6.904  -4.370  1.00  0.00     0.103 C 
BRANCH  19  20
HETATM   20  C   UNL     1     -21.258  -6.923  -5.597  1.00  0.00     0.217 C 
HETATM   21  O   UNL     1     -21.161  -7.899  -6.338  1.00  0.00    -0.274 OA
HETATM   22  N   UNL     1     -20.563  -5.753  -5.825  1.00  0.00    -0.361 N 
HETATM   23  H   UNL     1     -20.663  -4.969  -5.204  1.00  0.00     0.162 HD
BRANCH  22  24
HETATM   24  C   UNL     1     -19.672  -5.675  -6.981  1.00  0.00     0.127 C 
BRANCH  24  25
HETATM   25  C   UNL     1     -19.705  -4.321  -7.686  1.00  0.00     0.058 C 
BRANCH  25  26
HETATM   26  C   UNL     1     -20.836  -4.225  -8.684  1.00  0.00    -0.054 A 
HETATM   27  C   UNL     1     -20.610  -4.399 -10.059  1.00  0.00     0.010 A 
HETATM   28  C   UNL     1     -21.665  -4.294 -10.978  1.00  0.00     0.040 A 
HETATM   29  C   UNL     1     -22.949  -4.019 -10.516  1.00  0.00     0.098 A 
HETATM   30  C   UNL     1     -23.177  -3.844  -9.154  1.00  0.00     0.099 A 
HETATM   31  C   UNL     1     -22.135  -3.934  -8.242  1.00  0.00     0.046 A 
BRANCH  29  32
HETATM   32  O   UNL     1     -24.017  -3.910 -11.364  1.00  0.00    -0.358 OA
HETATM   33  H   UNL     1     -23.684  -3.923 -12.278  1.00  0.00     0.217 HD
ENDBRANCH  29  32
BRANCH  30  34
HETATM   34  O   UNL     1     -24.433  -3.586  -8.686  1.00  0.00    -0.358 OA
HETATM   35  H   UNL     1     -24.339  -3.521  -7.715  1.00  0.00     0.217 HD
ENDBRANCH  30  34
ENDBRANCH  25  26
ENDBRANCH  24  25
ENDBRANCH  22  24
ENDBRANCH  19  20
ENDBRANCH   1  19
TORSDOF 19
ENDMDL
MODEL 4
REMARK VINA RESULT:      -7.6      1.201      2.125
REMARK  19 active torsions:
REMARK  status: ('A' for Active; 'I' for Inactive)
REMARK    1  A    between atoms: C_2  and  C_3 
REMARK    2  A    between atoms: C_3  and  C_4 
REMARK    3  A    between atoms: C_4  and  C_5 
REMARK    4  A    between atoms: C_5  and  C_6 
REMARK    5  A    between atoms: C_7  and  C_8 
REMARK    6  A    between atoms: C_8  and  C_9 
REMARK    7  A    between atoms: C_10  and  C_11 
REMARK    8  A    between atoms: C_11  and  C_12 
REMARK    9  A    between atoms: C_13  and  C_14 
REMARK   10  A    between atoms: C_14  and  C_15 
REMARK   11  A    between atoms: C_16  and  C_17 
REMARK   12  A    between atoms: C_17  and  C_18 
REMARK   13  A    between atoms: C_18  and  C_19 
REMARK   14  A    between atoms: C_19  and  C_20 
REMARK       I    between atoms: C_20  and  N_22 
REMARK   15  A    between atoms: N_22  and  C_23 
REMARK   16  A    between atoms: C_23  and  C_24 
REMARK   17  A    between atoms: C_24  and  C_25 
REMARK   18  A    between atoms: C_28  and  O_29 
REMARK   19  A    between atoms: C_30  and  O_31 
ROOT
HETATM    1  C   UNL     1     -21.846  -7.530  -1.826  1.00  0.00     0.013 C 
ENDROOT
BRANCH   1   2
HETATM    2  C   UNL     1     -22.172  -7.341  -0.348  1.00  0.00     0.027 C 
BRANCH   2   3
HETATM    3  C   UNL     1     -23.020  -8.455   0.185  1.00  0.00    -0.030 C 
HETATM    4  C   UNL     1     -23.089  -9.664  -0.391  1.00  0.00    -0.027 C 
BRANCH   4   5
HETATM    5  C   UNL     1     -23.923 -10.787   0.143  1.00  0.00     0.053 C 
BRANCH   5   6
HETATM    6  C   UNL     1     -23.798 -12.010  -0.714  1.00  0.00    -0.027 C 
HETATM    7  C   UNL     1     -22.978 -12.084  -1.775  1.00  0.00    -0.027 C 
BRANCH   7   8
HETATM    8  C   UNL     1     -22.854 -13.294  -2.646  1.00  0.00     0.053 C 
BRANCH   8   9
HETATM    9  C   UNL     1     -22.150 -12.966  -3.926  1.00  0.00    -0.027 C 
HETATM   10  C   UNL     1     -22.051 -11.721  -4.415  1.00  0.00    -0.027 C 
BRANCH  10  11
HETATM   11  C   UNL     1     -21.352 -11.390  -5.695  1.00  0.00     0.053 C 
BRANCH  11  12
HETATM   12  C   UNL     1     -20.045 -10.716  -5.430  1.00  0.00    -0.027 C 
HETATM   13  C   UNL     1     -19.866  -9.812  -4.455  1.00  0.00    -0.030 C 
BRANCH  13  14
HETATM   14  C   UNL     1     -18.555  -9.146  -4.192  1.00  0.00     0.027 C 
BRANCH  14  15
HETATM   15  C   UNL     1     -17.991  -9.591  -2.847  1.00  0.00     0.004 C 
BRANCH  15  16
HETATM   16  C   UNL     1     -16.471  -9.488  -2.850  1.00  0.00    -0.000 C 
BRANCH  16  17
HETATM   17  C   UNL     1     -15.910  -9.805  -4.230  1.00  0.00    -0.005 C 
HETATM   18  C   UNL     1     -15.454 -11.250  -4.301  1.00  0.00     0.005 C 
ENDBRANCH  16  17
ENDBRANCH  15  16
ENDBRANCH  14  15
ENDBRANCH  13  14
ENDBRANCH  11  12
ENDBRANCH  10  11
ENDBRANCH   8   9
ENDBRANCH   7   8
ENDBRANCH   5   6
ENDBRANCH   4   5
ENDBRANCH   2   3
ENDBRANCH   1   2
BRANCH   1  19
HETATM   19  C   UNL     1     -21.700  -6.210  -2.595  1.00  0.00     0.103 C 
BRANCH  19  20
HETATM   20  C   UNL     1     -21.518  -6.476  -4.078  1.00  0.00     0.217 C 
HETATM   21  O   UNL     1     -22.232  -7.253  -4.710  1.00  0.00    -0.274 OA
HETATM   22  N   UNL     1     -20.493  -5.771  -4.672  1.00  0.00    -0.361 N 
HETATM   23  H   UNL     1     -19.927  -5.139  -4.132  1.00  0.00     0.162 HD
BRANCH  22  24
HETATM   24  C   UNL     1     -20.237  -5.962  -6.099  1.00  0.00     0.127 C 
BRANCH  24  25
HETATM   25  C   UNL     1     -19.836  -4.678  -6.823  1.00  0.00     0.058 C 
BRANCH  25  26
HETATM   26  C   UNL     1     -20.750  -4.369  -7.985  1.00  0.00    -0.054 A 
HETATM   27  C   UNL     1     -20.264  -4.323  -9.302  1.00  0.00     0.010 A 
HETATM   28  C   UNL     1     -21.119  -4.022 -10.373  1.00  0.00     0.040 A 
HETATM   29  C   UNL     1     -22.466  -3.771 -10.122  1.00  0.00     0.098 A 
HETATM   30  C   UNL     1     -22.952  -3.815  -8.818  1.00  0.00     0.099 A 
HETATM   31  C   UNL     1     -22.107  -4.100  -7.755  1.00  0.00     0.046 A 
BRANCH  29  32
HETATM   32  O   UNL     1     -23.347  -3.477 -11.126  1.00  0.00    -0.358 OA
HETATM   33  H   UNL     1     -22.858  -3.039 -11.844  1.00  0.00     0.217 HD
ENDBRANCH  29  32
BRANCH  30  34
HETATM   34  O   UNL     1     -24.272  -3.584  -8.560  1.00  0.00    -0.358 OA
HETATM   35  H   UNL     1     -24.754  -4.301  -9.018  1.00  0.00     0.217 HD
ENDBRANCH  30  34
ENDBRANCH  25  26
ENDBRANCH  24  25
ENDBRANCH  22  24
ENDBRANCH  19  20
ENDBRANCH   1  19
TORSDOF 19
ENDMDL
MODEL 5
REMARK VINA RESULT:      -7.5      1.619      4.866
REMARK  19 active torsions:
REMARK  status: ('A' for Active; 'I' for Inactive)
REMARK    1  A    between atoms: C_2  and  C_3 
REMARK    2  A    between atoms: C_3  and  C_4 
REMARK    3  A    between atoms: C_4  and  C_5 
REMARK    4  A    between atoms: C_5  and  C_6 
REMARK    5  A    between atoms: C_7  and  C_8 
REMARK    6  A    between atoms: C_8  and  C_9 
REMARK    7  A    between atoms: C_10  and  C_11 
REMARK    8  A    between atoms: C_11  and  C_12 
REMARK    9  A    between atoms: C_13  and  C_14 
REMARK   10  A    between atoms: C_14  and  C_15 
REMARK   11  A    between atoms: C_16  and  C_17 
REMARK   12  A    between atoms: C_17  and  C_18 
REMARK   13  A    between atoms: C_18  and  C_19 
REMARK   14  A    between atoms: C_19  and  C_20 
REMARK       I    between atoms: C_20  and  N_22 
REMARK   15  A    between atoms: N_22  and  C_23 
REMARK   16  A    between atoms: C_23  and  C_24 
REMARK   17  A    between atoms: C_24  and  C_25 
REMARK   18  A    between atoms: C_28  and  O_29 
REMARK   19  A    between atoms: C_30  and  O_31 
ROOT
HETATM    1  C   UNL     1     -21.642  -7.356  -2.284  1.00  0.00     0.013 C 
ENDROOT
BRANCH   1   2
HETATM    2  C   UNL     1     -20.462  -8.018  -1.579  1.00  0.00     0.027 C 
BRANCH   2   3
HETATM    3  C   UNL     1     -19.653  -8.862  -2.516  1.00  0.00    -0.030 C 
HETATM    4  C   UNL     1     -20.063  -9.188  -3.750  1.00  0.00    -0.027 C 
BRANCH   4   5
HETATM    5  C   UNL     1     -19.254 -10.019  -4.698  1.00  0.00     0.053 C 
BRANCH   5   6
HETATM    6  C   UNL     1     -18.033 -10.569  -4.027  1.00  0.00    -0.027 C 
HETATM    7  C   UNL     1     -16.797 -10.089  -4.240  1.00  0.00    -0.027 C 
BRANCH   7   8
HETATM    8  C   UNL     1     -15.568 -10.639  -3.586  1.00  0.00     0.053 C 
BRANCH   8   9
HETATM    9  C   UNL     1     -15.732 -10.701  -2.100  1.00  0.00    -0.027 C 
HETATM   10  C   UNL     1     -16.080 -11.818  -1.442  1.00  0.00    -0.027 C 
BRANCH  10  11
HETATM   11  C   UNL     1     -16.249 -11.883   0.042  1.00  0.00     0.053 C 
BRANCH  11  12
HETATM   12  C   UNL     1     -17.639 -12.298   0.402  1.00  0.00    -0.027 C 
HETATM   13  C   UNL     1     -18.726 -11.895  -0.272  1.00  0.00    -0.030 C 
BRANCH  13  14
HETATM   14  C   UNL     1     -20.113 -12.319   0.089  1.00  0.00     0.027 C 
BRANCH  14  15
HETATM   15  C   UNL     1     -21.002 -11.100   0.310  1.00  0.00     0.004 C 
BRANCH  15  16
HETATM   16  C   UNL     1     -22.471 -11.497   0.243  1.00  0.00    -0.000 C 
BRANCH  16  17
HETATM   17  C   UNL     1     -23.290 -10.422  -0.460  1.00  0.00    -0.005 C 
HETATM   18  C   UNL     1     -23.286  -9.138   0.347  1.00  0.00     0.005 C 
ENDBRANCH  16  17
ENDBRANCH  15  16
ENDBRANCH  14  15
ENDBRANCH  13  14
ENDBRANCH  11  12
ENDBRANCH  10  11
ENDBRANCH   8   9
ENDBRANCH   7   8
ENDBRANCH   5   6
ENDBRANCH   4   5
ENDBRANCH   2   3
ENDBRANCH   1   2
BRANCH   1  19
HETATM   19  C   UNL     1     -21.293  -6.005  -2.922  1.00  0.00     0.103 C 
BRANCH  19  20
HETATM   20  C   UNL     1     -21.627  -6.015  -4.403  1.00  0.00     0.217 C 
HETATM   21  O   UNL     1     -22.688  -6.451  -4.845  1.00  0.00    -0.274 OA
HETATM   22  N   UNL     1     -20.650  -5.488  -5.221  1.00  0.00    -0.361 N 
HETATM   23  H   UNL     1     -19.792  -5.136  -4.832  1.00  0.00     0.162 HD
BRANCH  22  24
HETATM   24  C   UNL     1     -20.877  -5.457  -6.665  1.00  0.00     0.127 C 
BRANCH  24  25
HETATM   25  C   UNL     1     -21.366  -4.103  -7.175  1.00  0.00     0.058 C 
BRANCH  25  26
HETATM   26  C   UNL     1     -21.474  -4.066  -8.681  1.00  0.00    -0.054 A 
HETATM   27  C   UNL     1     -20.332  -4.131  -9.495  1.00  0.00     0.010 A 
HETATM   28  C   UNL     1     -20.443  -4.082 -10.893  1.00  0.00     0.040 A 
HETATM   29  C   UNL     1     -21.703  -3.971 -11.475  1.00  0.00     0.098 A 
HETATM   30  C   UNL     1     -22.838  -3.905 -10.672  1.00  0.00     0.099 A 
HETATM   31  C   UNL     1     -22.732  -3.940  -9.289  1.00  0.00     0.046 A 
BRANCH  29  32
HETATM   32  O   UNL     1     -21.873  -3.924 -12.832  1.00  0.00    -0.358 OA
HETATM   33  H   UNL     1     -22.514  -4.612 -13.083  1.00  0.00     0.217 HD
ENDBRANCH  29  32
BRANCH  30  34
HETATM   34  O   UNL     1     -24.080  -3.810 -11.229  1.00  0.00    -0.358 OA
HETATM   35  H   UNL     1     -24.684  -3.627 -10.483  1.00  0.00     0.217 HD
ENDBRANCH  30  34
ENDBRANCH  25  26
ENDBRANCH  24  25
ENDBRANCH  22  24
ENDBRANCH  19  20
ENDBRANCH   1  19
TORSDOF 19
ENDMDL
MODEL 6
REMARK VINA RESULT:      -7.5      1.380      2.238
REMARK  19 active torsions:
REMARK  status: ('A' for Active; 'I' for Inactive)
REMARK    1  A    between atoms: C_2  and  C_3 
REMARK    2  A    between atoms: C_3  and  C_4 
REMARK    3  A    between atoms: C_4  and  C_5 
REMARK    4  A    between atoms: C_5  and  C_6 
REMARK    5  A    between atoms: C_7  and  C_8 
REMARK    6  A    between atoms: C_8  and  C_9 
REMARK    7  A    between atoms: C_10  and  C_11 
REMARK    8  A    between atoms: C_11  and  C_12 
REMARK    9  A    between atoms: C_13  and  C_14 
REMARK   10  A    between atoms: C_14  and  C_15 
REMARK   11  A    between atoms: C_16  and  C_17 
REMARK   12  A    between atoms: C_17  and  C_18 
REMARK   13  A    between atoms: C_18  and  C_19 
REMARK   14  A    between atoms: C_19  and  C_20 
REMARK       I    between atoms: C_20  and  N_22 
REMARK   15  A    between atoms: N_22  and  C_23 
REMARK   16  A    between atoms: C_23  and  C_24 
REMARK   17  A    between atoms: C_24  and  C_25 
REMARK   18  A    between atoms: C_28  and  O_29 
REMARK   19  A    between atoms: C_30  and  O_31 
ROOT
HETATM    1  C   UNL     1     -21.808  -7.515  -1.704  1.00  0.00     0.013 C 
ENDROOT
BRANCH   1   2
HETATM    2  C   UNL     1     -22.048  -7.465  -0.198  1.00  0.00     0.027 C 
BRANCH   2   3
HETATM    3  C   UNL     1     -22.940  -8.577   0.263  1.00  0.00    -0.030 C 
HETATM    4  C   UNL     1     -23.134  -9.702  -0.440  1.00  0.00    -0.027 C 
BRANCH   4   5
HETATM    5  C   UNL     1     -24.013 -10.823   0.021  1.00  0.00     0.053 C 
BRANCH   5   6
HETATM    6  C   UNL     1     -23.709 -12.089  -0.721  1.00  0.00    -0.027 C 
HETATM    7  C   UNL     1     -23.125 -12.112  -1.931  1.00  0.00    -0.027 C 
BRANCH   7   8
HETATM    8  C   UNL     1     -22.829 -13.368  -2.687  1.00  0.00     0.053 C 
BRANCH   8   9
HETATM    9  C   UNL     1     -22.094 -13.072  -3.956  1.00  0.00    -0.027 C 
HETATM   10  C   UNL     1     -22.217 -11.916  -4.628  1.00  0.00    -0.027 C 
BRANCH  10  11
HETATM   11  C   UNL     1     -21.488 -11.618  -5.899  1.00  0.00     0.053 C 
BRANCH  11  12
HETATM   12  C   UNL     1     -20.183 -10.946  -5.619  1.00  0.00    -0.027 C 
HETATM   13  C   UNL     1     -19.993 -10.102  -4.595  1.00  0.00    -0.030 C 
BRANCH  13  14
HETATM   14  C   UNL     1     -18.684  -9.438  -4.317  1.00  0.00     0.027 C 
BRANCH  14  15
HETATM   15  C   UNL     1     -18.435  -9.354  -2.815  1.00  0.00     0.004 C 
BRANCH  15  16
HETATM   16  C   UNL     1     -18.704 -10.701  -2.158  1.00  0.00    -0.000 C 
BRANCH  16  17
HETATM   17  C   UNL     1     -19.903 -10.616  -1.221  1.00  0.00    -0.005 C 
HETATM   18  C   UNL     1     -19.747 -11.586  -0.066  1.00  0.00     0.005 C 
ENDBRANCH  16  17
ENDBRANCH  15  16
ENDBRANCH  14  15
ENDBRANCH  13  14
ENDBRANCH  11  12
ENDBRANCH  10  11
ENDBRANCH   8   9
ENDBRANCH   7   8
ENDBRANCH   5   6
ENDBRANCH   4   5
ENDBRANCH   2   3
ENDBRANCH   1   2
BRANCH   1  19
HETATM   19  C   UNL     1     -21.860  -6.138  -2.378  1.00  0.00     0.103 C 
BRANCH  19  20
HETATM   20  C   UNL     1     -21.896  -6.287  -3.889  1.00  0.00     0.217 C 
HETATM   21  O   UNL     1     -22.942  -6.288  -4.535  1.00  0.00    -0.274 OA
HETATM   22  N   UNL     1     -20.660  -6.412  -4.489  1.00  0.00    -0.361 N 
HETATM   23  H   UNL     1     -19.820  -6.406  -3.937  1.00  0.00     0.162 HD
BRANCH  22  24
HETATM   24  C   UNL     1     -20.592  -6.564  -5.942  1.00  0.00     0.127 C 
BRANCH  24  25
HETATM   25  C   UNL     1     -19.863  -5.418  -6.639  1.00  0.00     0.058 C 
BRANCH  25  26
HETATM   26  C   UNL     1     -20.671  -4.834  -7.774  1.00  0.00    -0.054 A 
HETATM   27  C   UNL     1     -22.007  -4.441  -7.590  1.00  0.00     0.010 A 
HETATM   28  C   UNL     1     -22.753  -3.912  -8.655  1.00  0.00     0.040 A 
HETATM   29  C   UNL     1     -22.156  -3.775  -9.905  1.00  0.00     0.098 A 
HETATM   30  C   UNL     1     -20.833  -4.164 -10.092  1.00  0.00     0.099 A 
HETATM   31  C   UNL     1     -20.095  -4.699  -9.046  1.00  0.00     0.046 A 
BRANCH  29  32
HETATM   32  O   UNL     1     -22.832  -3.261 -10.978  1.00  0.00    -0.358 OA
HETATM   33  H   UNL     1     -23.325  -3.984 -11.403  1.00  0.00     0.217 HD
ENDBRANCH  29  32
BRANCH  30  34
HETATM   34  O   UNL     1     -20.231  -4.023 -11.309  1.00  0.00    -0.358 OA
HETATM   35  H   UNL     1     -20.141  -3.058 -11.442  1.00  0.00     0.217 HD
ENDBRANCH  30  34
ENDBRANCH  25  26
ENDBRANCH  24  25
ENDBRANCH  22  24
ENDBRANCH  19  20
ENDBRANCH   1  19
TORSDOF 19
ENDMDL
MODEL 7
REMARK VINA RESULT:      -7.4      1.435      2.092
REMARK  19 active torsions:
REMARK  status: ('A' for Active; 'I' for Inactive)
REMARK    1  A    between atoms: C_2  and  C_3 
REMARK    2  A    between atoms: C_3  and  C_4 
REMARK    3  A    between atoms: C_4  and  C_5 
REMARK    4  A    between atoms: C_5  and  C_6 
REMARK    5  A    between atoms: C_7  and  C_8 
REMARK    6  A    between atoms: C_8  and  C_9 
REMARK    7  A    between atoms: C_10  and  C_11 
REMARK    8  A    between atoms: C_11  and  C_12 
REMARK    9  A    between atoms: C_13  and  C_14 
REMARK   10  A    between atoms: C_14  and  C_15 
REMARK   11  A    between atoms: C_16  and  C_17 
REMARK   12  A    between atoms: C_17  and  C_18 
REMARK   13  A    between atoms: C_18  and  C_19 
REMARK   14  A    between atoms: C_19  and  C_20 
REMARK       I    between atoms: C_20  and  N_22 
REMARK   15  A    between atoms: N_22  and  C_23 
REMARK   16  A    between atoms: C_23  and  C_24 
REMARK   17  A    between atoms: C_24  and  C_25 
REMARK   18  A    between atoms: C_28  and  O_29 
REMARK   19  A    between atoms: C_30  and  O_31 
ROOT
HETATM    1  C   UNL     1     -21.524  -8.346  -3.893  1.00  0.00     0.013 C 
ENDROOT
BRANCH   1   2
HETATM    2  C   UNL     1     -20.570  -7.733  -2.871  1.00  0.00     0.027 C 
BRANCH   2   3
HETATM    3  C   UNL     1     -21.105  -7.837  -1.475  1.00  0.00    -0.030 C 
HETATM    4  C   UNL     1     -22.321  -7.398  -1.121  1.00  0.00    -0.027 C 
BRANCH   4   5
HETATM    5  C   UNL     1     -22.868  -7.511   0.268  1.00  0.00     0.053 C 
BRANCH   5   6
HETATM    6  C   UNL     1     -23.100  -8.942   0.644  1.00  0.00    -0.027 C 
HETATM    7  C   UNL     1     -23.493  -9.879  -0.235  1.00  0.00    -0.027 C 
BRANCH   7   8
HETATM    8  C   UNL     1     -23.741 -11.309   0.130  1.00  0.00     0.053 C 
BRANCH   8   9
HETATM    9  C   UNL     1     -22.500 -12.129  -0.035  1.00  0.00    -0.027 C 
HETATM   10  C   UNL     1     -21.263 -11.608  -0.022  1.00  0.00    -0.027 C 
BRANCH  10  11
HETATM   11  C   UNL     1     -20.022 -12.424  -0.191  1.00  0.00     0.053 C 
BRANCH  11  12
HETATM   12  C   UNL     1     -19.212 -11.928  -1.346  1.00  0.00    -0.027 C 
HETATM   13  C   UNL     1     -17.906 -11.638  -1.259  1.00  0.00    -0.030 C 
BRANCH  13  14
HETATM   14  C   UNL     1     -17.101 -11.148  -2.420  1.00  0.00     0.027 C 
BRANCH  14  15
HETATM   15  C   UNL     1     -17.465  -9.705  -2.749  1.00  0.00     0.004 C 
BRANCH  15  16
HETATM   16  C   UNL     1     -17.680  -9.542  -4.249  1.00  0.00    -0.000 C 
BRANCH  16  17
HETATM   17  C   UNL     1     -18.092 -10.865  -4.883  1.00  0.00    -0.005 C 
HETATM   18  C   UNL     1     -17.235 -11.162  -6.098  1.00  0.00     0.005 C 
ENDBRANCH  16  17
ENDBRANCH  15  16
ENDBRANCH  14  15
ENDBRANCH  13  14
ENDBRANCH  11  12
ENDBRANCH  10  11
ENDBRANCH   8   9
ENDBRANCH   7   8
ENDBRANCH   5   6
ENDBRANCH   4   5
ENDBRANCH   2   3
ENDBRANCH   1   2
BRANCH   1  19
HETATM   19  C   UNL     1     -21.145  -8.035  -5.347  1.00  0.00     0.103 C 
BRANCH  19  20
HETATM   20  C   UNL     1     -21.332  -6.556  -5.640  1.00  0.00     0.217 C 
HETATM   21  O   UNL     1     -22.359  -5.944  -5.356  1.00  0.00    -0.274 OA
HETATM   22  N   UNL     1     -20.253  -5.944  -6.243  1.00  0.00    -0.361 N 
HETATM   23  H   UNL     1     -19.424  -6.469  -6.462  1.00  0.00     0.162 HD
BRANCH  22  24
HETATM   24  C   UNL     1     -20.339  -4.522  -6.569  1.00  0.00     0.127 C 
BRANCH  24  25
HETATM   25  C   UNL     1     -19.986  -4.207  -8.021  1.00  0.00     0.058 C 
BRANCH  25  26
HETATM   26  C   UNL     1     -21.211  -4.130  -8.901  1.00  0.00    -0.054 A 
HETATM   27  C   UNL     1     -22.498  -4.015  -8.351  1.00  0.00     0.010 A 
HETATM   28  C   UNL     1     -23.629  -3.958  -9.179  1.00  0.00     0.040 A 
HETATM   29  C   UNL     1     -23.469  -4.011 -10.561  1.00  0.00     0.098 A 
HETATM   30  C   UNL     1     -22.195  -4.126 -11.111  1.00  0.00     0.099 A 
HETATM   31  C   UNL     1     -21.074  -4.196 -10.296  1.00  0.00     0.046 A 
BRANCH  29  32
HETATM   32  O   UNL     1     -24.535  -3.955 -11.417  1.00  0.00    -0.358 OA
HETATM   33  H   UNL     1     -25.038  -4.783 -11.334  1.00  0.00     0.217 HD
ENDBRANCH  29  32
BRANCH  30  34
HETATM   34  O   UNL     1     -22.023  -4.167 -12.464  1.00  0.00    -0.358 OA
HETATM   35  H   UNL     1     -22.589  -3.453 -12.818  1.00  0.00     0.217 HD
ENDBRANCH  30  34
ENDBRANCH  25  26
ENDBRANCH  24  25
ENDBRANCH  22  24
ENDBRANCH  19  20
ENDBRANCH   1  19
TORSDOF 19
ENDMDL
MODEL 8
REMARK VINA RESULT:      -7.2      1.822      5.306
REMARK  19 active torsions:
REMARK  status: ('A' for Active; 'I' for Inactive)
REMARK    1  A    between atoms: C_2  and  C_3 
REMARK    2  A    between atoms: C_3  and  C_4 
REMARK    3  A    between atoms: C_4  and  C_5 
REMARK    4  A    between atoms: C_5  and  C_6 
REMARK    5  A    between atoms: C_7  and  C_8 
REMARK    6  A    between atoms: C_8  and  C_9 
REMARK    7  A    between atoms: C_10  and  C_11 
REMARK    8  A    between atoms: C_11  and  C_12 
REMARK    9  A    between atoms: C_13  and  C_14 
REMARK   10  A    between atoms: C_14  and  C_15 
REMARK   11  A    between atoms: C_16  and  C_17 
REMARK   12  A    between atoms: C_17  and  C_18 
REMARK   13  A    between atoms: C_18  and  C_19 
REMARK   14  A    between atoms: C_19  and  C_20 
REMARK       I    between atoms: C_20  and  N_22 
REMARK   15  A    between atoms: N_22  and  C_23 
REMARK   16  A    between atoms: C_23  and  C_24 
REMARK   17  A    between atoms: C_24  and  C_25 
REMARK   18  A    between atoms: C_28  and  O_29 
REMARK   19  A    between atoms: C_30  and  O_31 
ROOT
HETATM    1  C   UNL     1     -20.355  -8.589  -4.074  1.00  0.00     0.013 C 
ENDROOT
BRANCH   1   2
HETATM    2  C   UNL     1     -19.765  -9.870  -4.656  1.00  0.00     0.027 C 
BRANCH   2   3
HETATM    3  C   UNL     1     -18.271  -9.810  -4.742  1.00  0.00    -0.030 C 
HETATM    4  C   UNL     1     -17.604  -9.767  -5.905  1.00  0.00    -0.027 C 
BRANCH   4   5
HETATM    5  C   UNL     1     -16.112  -9.692  -5.999  1.00  0.00     0.053 C 
BRANCH   5   6
HETATM    6  C   UNL     1     -15.460 -10.394  -4.847  1.00  0.00    -0.027 C 
HETATM    7  C   UNL     1     -15.003 -11.655  -4.917  1.00  0.00    -0.027 C 
BRANCH   7   8
HETATM    8  C   UNL     1     -14.363 -12.371  -3.770  1.00  0.00     0.053 C 
BRANCH   8   9
HETATM    9  C   UNL     1     -15.177 -12.224  -2.522  1.00  0.00    -0.027 C 
HETATM   10  C   UNL     1     -16.336 -12.868  -2.317  1.00  0.00    -0.027 C 
BRANCH  10  11
HETATM   11  C   UNL     1     -17.154 -12.719  -1.074  1.00  0.00     0.053 C 
BRANCH  11  12
HETATM   12  C   UNL     1     -18.561 -12.339  -1.405  1.00  0.00    -0.027 C 
HETATM   13  C   UNL     1     -19.191 -11.291  -0.855  1.00  0.00    -0.030 C 
BRANCH  13  14
HETATM   14  C   UNL     1     -20.596 -10.914  -1.195  1.00  0.00     0.027 C 
BRANCH  14  15
HETATM   15  C   UNL     1     -21.477 -10.959   0.049  1.00  0.00     0.004 C 
BRANCH  15  16
HETATM   16  C   UNL     1     -22.636  -9.980  -0.087  1.00  0.00    -0.000 C 
BRANCH  16  17
HETATM   17  C   UNL     1     -22.246  -8.798  -0.966  1.00  0.00    -0.005 C 
HETATM   18  C   UNL     1     -22.267  -7.510  -0.166  1.00  0.00     0.005 C 
ENDBRANCH  16  17
ENDBRANCH  15  16
ENDBRANCH  14  15
ENDBRANCH  13  14
ENDBRANCH  11  12
ENDBRANCH  10  11
ENDBRANCH   8   9
ENDBRANCH   7   8
ENDBRANCH   5   6
ENDBRANCH   4   5
ENDBRANCH   2   3
ENDBRANCH   1   2
BRANCH   1  19
HETATM   19  C   UNL     1     -21.675  -8.169  -4.733  1.00  0.00     0.103 C 
BRANCH  19  20
HETATM   20  C   UNL     1     -21.639  -6.698  -5.107  1.00  0.00     0.217 C 
HETATM   21  O   UNL     1     -22.638  -5.981  -5.094  1.00  0.00    -0.274 OA
HETATM   22  N   UNL     1     -20.394  -6.219  -5.455  1.00  0.00    -0.361 N 
HETATM   23  H   UNL     1     -19.593  -6.827  -5.454  1.00  0.00     0.162 HD
BRANCH  22  24
HETATM   24  C   UNL     1     -20.258  -4.813  -5.835  1.00  0.00     0.127 C 
BRANCH  24  25
HETATM   25  C   UNL     1     -19.631  -4.613  -7.213  1.00  0.00     0.058 C 
BRANCH  25  26
HETATM   26  C   UNL     1     -20.672  -4.390  -8.285  1.00  0.00    -0.054 A 
HETATM   27  C   UNL     1     -20.338  -4.448  -9.648  1.00  0.00     0.010 A 
HETATM   28  C   UNL     1     -21.309  -4.226 -10.635  1.00  0.00     0.040 A 
HETATM   29  C   UNL     1     -22.619  -3.948 -10.255  1.00  0.00     0.098 A 
HETATM   30  C   UNL     1     -22.955  -3.888  -8.905  1.00  0.00     0.099 A 
HETATM   31  C   UNL     1     -21.995  -4.094  -7.925  1.00  0.00     0.046 A 
BRANCH  29  32
HETATM   32  O   UNL     1     -23.610  -3.728 -11.173  1.00  0.00    -0.358 OA
HETATM   33  H   UNL     1     -23.764  -4.556 -11.660  1.00  0.00     0.217 HD
ENDBRANCH  29  32
BRANCH  30  34
HETATM   34  O   UNL     1     -24.238  -3.630  -8.518  1.00  0.00    -0.358 OA
HETATM   35  H   UNL     1     -24.499  -2.827  -9.010  1.00  0.00     0.217 HD
ENDBRANCH  30  34
ENDBRANCH  25  26
ENDBRANCH  24  25
ENDBRANCH  22  24
ENDBRANCH  19  20
ENDBRANCH   1  19
TORSDOF 19
ENDMDL
MODEL 9
REMARK VINA RESULT:      -7.2      1.772      3.378
REMARK  19 active torsions:
REMARK  status: ('A' for Active; 'I' for Inactive)
REMARK    1  A    between atoms: C_2  and  C_3 
REMARK    2  A    between atoms: C_3  and  C_4 
REMARK    3  A    between atoms: C_4  and  C_5 
REMARK    4  A    between atoms: C_5  and  C_6 
REMARK    5  A    between atoms: C_7  and  C_8 
REMARK    6  A    between atoms: C_8  and  C_9 
REMARK    7  A    between atoms: C_10  and  C_11 
REMARK    8  A    between atoms: C_11  and  C_12 
REMARK    9  A    between atoms: C_13  and  C_14 
REMARK   10  A    between atoms: C_14  and  C_15 
REMARK   11  A    between atoms: C_16  and  C_17 
REMARK   12  A    between atoms: C_17  and  C_18 
REMARK   13  A    between atoms: C_18  and  C_19 
REMARK   14  A    between atoms: C_19  and  C_20 
REMARK       I    between atoms: C_20  and  N_22 
REMARK   15  A    between atoms: N_22  and  C_23 
REMARK   16  A    between atoms: C_23  and  C_24 
REMARK   17  A    between atoms: C_24  and  C_25 
REMARK   18  A    between atoms: C_28  and  O_29 
REMARK   19  A    between atoms: C_30  and  O_31 
ROOT
HETATM    1  C   UNL     1     -21.798  -7.258  -0.733  1.00  0.00     0.013 C 
ENDROOT
BRANCH   1   2
HETATM    2  C   UNL     1     -23.005  -7.850  -0.011  1.00  0.00     0.027 C 
BRANCH   2   3
HETATM    3  C   UNL     1     -22.823  -9.310   0.277  1.00  0.00    -0.030 C 
HETATM    4  C   UNL     1     -23.586 -10.266  -0.271  1.00  0.00    -0.027 C 
BRANCH   4   5
HETATM    5  C   UNL     1     -23.402 -11.727   0.000  1.00  0.00     0.053 C 
BRANCH   5   6
HETATM    6  C   UNL     1     -22.451 -12.344  -0.979  1.00  0.00    -0.027 C 
HETATM    7  C   UNL     1     -21.162 -12.596  -0.696  1.00  0.00    -0.027 C 
BRANCH   7   8
HETATM    8  C   UNL     1     -20.200 -13.199  -1.671  1.00  0.00     0.053 C 
BRANCH   8   9
HETATM    9  C   UNL     1     -18.938 -12.399  -1.746  1.00  0.00    -0.027 C 
HETATM   10  C   UNL     1     -17.955 -12.483  -0.836  1.00  0.00    -0.027 C 
BRANCH  10  11
HETATM   11  C   UNL     1     -16.695 -11.681  -0.906  1.00  0.00     0.053 C 
BRANCH  11  12
HETATM   12  C   UNL     1     -16.416 -11.249  -2.310  1.00  0.00    -0.027 C 
HETATM   13  C   UNL     1     -16.160  -9.978  -2.652  1.00  0.00    -0.030 C 
BRANCH  13  14
HETATM   14  C   UNL     1     -15.877  -9.554  -4.057  1.00  0.00     0.027 C 
BRANCH  14  15
HETATM   15  C   UNL     1     -16.746 -10.335  -5.036  1.00  0.00     0.004 C 
BRANCH  15  16
HETATM   16  C   UNL     1     -18.083  -9.633  -5.236  1.00  0.00    -0.000 C 
BRANCH  16  17
HETATM   17  C   UNL     1     -19.232 -10.632  -5.182  1.00  0.00    -0.005 C 
HETATM   18  C   UNL     1     -18.714 -12.048  -5.348  1.00  0.00     0.005 C 
ENDBRANCH  16  17
ENDBRANCH  15  16
ENDBRANCH  14  15
ENDBRANCH  13  14
ENDBRANCH  11  12
ENDBRANCH  10  11
ENDBRANCH   8   9
ENDBRANCH   7   8
ENDBRANCH   5   6
ENDBRANCH   4   5
ENDBRANCH   2   3
ENDBRANCH   1   2
BRANCH   1  19
HETATM   19  C   UNL     1     -22.175  -6.336  -1.900  1.00  0.00     0.103 C 
BRANCH  19  20
HETATM   20  C   UNL     1     -21.461  -6.765  -3.169  1.00  0.00     0.217 C 
HETATM   21  O   UNL     1     -20.890  -7.848  -3.280  1.00  0.00    -0.274 OA
HETATM   22  N   UNL     1     -21.507  -5.848  -4.198  1.00  0.00    -0.361 N 
HETATM   23  H   UNL     1     -21.983  -4.971  -4.081  1.00  0.00     0.162 HD
BRANCH  22  24
HETATM   24  C   UNL     1     -20.845  -6.170  -5.462  1.00  0.00     0.127 C 
BRANCH  24  25
HETATM   25  C   UNL     1     -20.191  -4.963  -6.130  1.00  0.00     0.058 C 
BRANCH  25  26
HETATM   26  C   UNL     1     -20.879  -4.584  -7.421  1.00  0.00    -0.054 A 
HETATM   27  C   UNL     1     -20.170  -4.513  -8.631  1.00  0.00     0.010 A 
HETATM   28  C   UNL     1     -20.816  -4.147  -9.821  1.00  0.00     0.040 A 
HETATM   29  C   UNL     1     -22.177  -3.855  -9.798  1.00  0.00     0.098 A 
HETATM   30  C   UNL     1     -22.884  -3.922  -8.601  1.00  0.00     0.099 A 
HETATM   31  C   UNL     1     -22.247  -4.271  -7.419  1.00  0.00     0.046 A 
BRANCH  29  32
HETATM   32  O   UNL     1     -22.861  -3.497 -10.928  1.00  0.00    -0.358 OA
HETATM   33  H   UNL     1     -22.268  -2.968 -11.489  1.00  0.00     0.217 HD
ENDBRANCH  29  32
BRANCH  30  34
HETATM   34  O   UNL     1     -24.221  -3.651  -8.566  1.00  0.00    -0.358 OA
HETATM   35  H   UNL     1     -24.641  -4.352  -9.101  1.00  0.00     0.217 HD
ENDBRANCH  30  34
ENDBRANCH  25  26
ENDBRANCH  24  25
ENDBRANCH  22  24
ENDBRANCH  19  20
ENDBRANCH   1  19
TORSDOF 19
ENDMDL
