REMARK  3 active torsions:
REMARK  status: ('A' for Active; 'I' for Inactive)
REMARK    1  A    between atoms: C_2  and  C_3 
REMARK    2  A    between atoms: C_2  and  O_6 
REMARK    3  A    between atoms: C_3  and  O_5 
ROOT
HETATM    1  C   UNL     1       0.903   0.029   0.030  1.00  0.00     0.042 C 
HETATM    2  C   UNL     1       2.426   0.032   0.082  1.00  0.00     0.142 C 
ENDROOT
BRANCH   2   3
HETATM    3  C   UNL     1       3.012  -0.219   1.486  1.00  0.00     0.142 C 
HETATM    4  C   UNL     1       2.632   0.846   2.507  1.00  0.00     0.042 C 
BRANCH   3   5
HETATM    5  O   UNL     1       2.601  -1.511   1.954  1.00  0.00    -0.393 OA
HETATM    6  H   UNL     1       1.681  -1.444   2.260  1.00  0.00     0.210 HD
ENDBRANCH   3   5
ENDBRANCH   2   3
BRANCH   2   7
HETATM    7  O   UNL     1       2.882  -1.001  -0.796  1.00  0.00    -0.393 OA
HETATM    8  H   UNL     1       2.814  -1.834  -0.287  1.00  0.00     0.210 HD
ENDBRANCH   2   7
TORSDOF 3
