REMARK  11 active torsions:
REMARK  status: ('A' for Active; 'I' for Inactive)
REMARK    1  A    between atoms: C_1  and  C_2 
REMARK    2  A    between atoms: C_1  and  O_17 
REMARK    3  A    between atoms: C_2  and  C_3 
REMARK    4  A    between atoms: C_2  and  O_16 
REMARK    5  A    between atoms: C_3  and  O_4 
REMARK    6  A    between atoms: O_4  and  C_5 
REMARK    7  A    between atoms: C_6  and  O_15 
REMARK    8  A    between atoms: C_10  and  C_11 
REMARK    9  A    between atoms: C_11  and  C_12 
REMARK   10  A    between atoms: C_11  and  O_14 
REMARK   11  A    between atoms: C_12  and  O_13 
ROOT
HETATM    1  C   UNL     1       3.169  -2.466  -2.582  1.00  0.00     0.117 C 
HETATM    2  C   UNL     1       4.136  -3.090  -1.908  1.00  0.00     0.174 C 
HETATM    3  C   UNL     1       4.594  -4.214  -2.748  1.00  0.00     0.320 C 
HETATM    4  O   UNL     1       5.431  -5.046  -2.461  1.00  0.00    -0.257 OA
HETATM    5  O   UNL     1       3.929  -4.162  -3.938  1.00  0.00    -0.301 OA
HETATM    6  C   UNL     1       2.913  -3.142  -3.891  1.00  0.00     0.222 C 
ENDROOT
BRANCH   1   7
HETATM    7  O   UNL     1       2.580  -1.292  -2.153  1.00  0.00    -0.347 OA
BRANCH   7   8
HETATM    8  C   UNL     1       2.188  -0.418  -3.213  1.00  0.00     0.209 C 
BRANCH   8   9
HETATM    9  C   UNL     1       1.808   0.979  -2.716  1.00  0.00     0.165 C 
BRANCH   9  10
HETATM   10  C   UNL     1       0.664   0.969  -1.693  1.00  0.00     0.198 C 
BRANCH  10  11
HETATM   11  O   UNL     1       0.258   2.295  -1.350  1.00  0.00    -0.398 OA
HETATM   12  H   UNL     1       1.012   2.895  -1.492  1.00  0.00     0.209 HD
ENDBRANCH  10  11
ENDBRANCH   9  10
BRANCH   9  13
HETATM   13  O   UNL     1       1.444   1.775  -3.847  1.00  0.00    -0.391 OA
HETATM   14  H   UNL     1       0.582   1.465  -4.182  1.00  0.00     0.210 HD
ENDBRANCH   9  13
ENDBRANCH   8   9
ENDBRANCH   7   8
ENDBRANCH   1   7
BRANCH   2  15
HETATM   15  O   UNL     1       4.669  -2.753  -0.704  1.00  0.00    -0.353 OA
HETATM   16  H   UNL     1       4.191  -1.960  -0.397  1.00  0.00     0.218 HD
ENDBRANCH   2  15
BRANCH   6  17
HETATM   17  C   UNL     1       1.552  -3.842  -4.059  1.00  0.00     0.177 C 
BRANCH  17  18
HETATM   18  C   UNL     1       1.444  -4.477  -5.456  1.00  0.00     0.198 C 
BRANCH  18  19
HETATM   19  O   UNL     1       0.171  -5.099  -5.616  1.00  0.00    -0.398 OA
HETATM   20  H   UNL     1       0.034  -5.654  -4.823  1.00  0.00     0.209 HD
ENDBRANCH  18  19
ENDBRANCH  17  18
BRANCH  17  21
HETATM   21  O   UNL     1       1.367  -4.890  -3.088  1.00  0.00    -0.390 OA
HETATM   22  H   UNL     1       2.092  -5.533  -3.205  1.00  0.00     0.210 HD
ENDBRANCH  17  21
ENDBRANCH   6  17
TORSDOF 11
