REMARK  5 active torsions:
REMARK  status: ('A' for Active; 'I' for Inactive)
REMARK    1  A    between atoms: C_2  and  C_3 
REMARK    2  A    between atoms: C_3  and  C_4 
REMARK    3  A    between atoms: C_4  and  C_5 
REMARK    4  A    between atoms: C_6  and  O_12 
REMARK    5  A    between atoms: C_8  and  O_11 
ROOT
HETATM    1  C   UNL     1       5.107   2.715  -0.715  1.00  0.00    -0.025 A 
HETATM    2  C   UNL     1       5.914   2.956  -1.837  1.00  0.00     0.074 A 
HETATM    3  C   UNL     1       6.368   4.241  -2.145  1.00  0.00     0.073 A 
HETATM    4  C   UNL     1       6.031   5.307  -1.321  1.00  0.00     0.068 A 
HETATM    5  C   UNL     1       5.250   5.104  -0.194  1.00  0.00     0.037 A 
HETATM    6  C   UNL     1       4.797   3.816   0.109  1.00  0.00     0.012 A 
ENDROOT
BRANCH   1   7
HETATM    7  C   UNL     1       4.571   1.352  -0.329  1.00  0.00     0.041 C 
BRANCH   7   8
HETATM    8  C   UNL     1       3.038   1.284  -0.323  1.00  0.00     0.004 C 
BRANCH   8   9
HETATM    9  C   UNL     1       2.537  -0.115   0.045  1.00  0.00    -0.004 C 
HETATM   10  C   UNL     1       1.017  -0.168   0.049  1.00  0.00     0.005 C 
ENDBRANCH   8   9
ENDBRANCH   7   8
ENDBRANCH   1   7
BRANCH   2  11
HETATM   11  O   UNL     1       6.320   1.985  -2.710  1.00  0.00    -0.360 OA
HETATM   12  H   UNL     1       6.126   1.110  -2.347  1.00  0.00     0.217 HD
ENDBRANCH   2  11
BRANCH   4  13
HETATM   13  O   UNL     1       6.456   6.575  -1.587  1.00  0.00    -0.361 OA
HETATM   14  H   UNL     1       6.981   6.557  -2.405  1.00  0.00     0.217 HD
ENDBRANCH   4  13
TORSDOF 5
