REMARK  6 active torsions:
REMARK  status: ('A' for Active; 'I' for Inactive)
REMARK       I    between atoms: C_2  and  N_4 
REMARK    1  A    between atoms: N_4  and  CA_5 
REMARK    2  A    between atoms: CA_5  and  CB_6 
REMARK    3  A    between atoms: CA_5  and  C_11 
REMARK    4  A    between atoms: CB_6  and  CG_7 
REMARK    5  A    between atoms: CG_7  and  CD_8 
REMARK       I    between atoms: CD_8  and  NE2_10 
REMARK    6  A    between atoms: C_11  and  OXT_13 
ROOT
ATOM      1  CA  GLN A   1       4.722  -0.470   1.127  1.00  0.00     0.182 C 
ENDROOT
BRANCH   1   2
ATOM      2  N   GLN A   1       3.258  -0.456   1.093  1.00  0.00    -0.347 N 
HETATM    3  C   UNK A   0       2.543  -0.570  -0.068  1.00  0.00     0.214 C 
HETATM    4  C   UNK A   0       1.054  -0.487   0.120  1.00  0.00     0.117 C 
HETATM    5  O   UNK A   0       3.067  -0.747  -1.164  1.00  0.00    -0.274 OA
ATOM      6  H   GLN A   1       2.777  -0.447   1.988  1.00  0.00     0.163 HD
ENDBRANCH   1   2
BRANCH   1   7
ATOM      7  CB  GLN A   1       5.294   0.945   0.947  1.00  0.00     0.045 C 
BRANCH   7   8
ATOM      8  CG  GLN A   1       6.823   0.963   0.955  1.00  0.00     0.105 C 
BRANCH   8   9
ATOM      9  CD  GLN A   1       7.419   2.339   0.777  1.00  0.00     0.215 C 
ATOM     10  OE1 GLN A   1       6.776   3.371   0.634  1.00  0.00    -0.274 OA
ATOM     11  NE2 GLN A   1       8.786   2.344   0.796  1.00  0.00    -0.370 N 
ATOM     12 1HE2 GLN A   1       9.344   1.511   0.926  1.00  0.00     0.159 HD
ATOM     13 2HE2 GLN A   1       9.260   3.232   0.691  1.00  0.00     0.159 HD
ENDBRANCH   8   9
ENDBRANCH   7   8
ENDBRANCH   1   7
BRANCH   1  14
ATOM     14  C   GLN A   1       5.121  -1.067   2.482  1.00  0.00     0.163 C 
ATOM     15  O   GLN A   1       4.458  -0.939   3.504  1.00  0.00    -0.648 OA
BRANCH  14  16
ATOM     16  OXT GLN A   1       6.293  -1.741   2.470  1.00  0.00    -0.775 OA
ATOM     17  HXT GLN A   1       6.715  -1.811   1.592  1.00  0.00     0.167 HD
ENDBRANCH  14  16
ENDBRANCH   1  14
TORSDOF 6
