REMARK  27 active torsions:
REMARK  status: ('A' for Active; 'I' for Inactive)
REMARK    1  A    between atoms: C_2  and  C_3 
REMARK    2  A    between atoms: C_3  and  C_4 
REMARK    3  A    between atoms: C_4  and  C_5 
REMARK    4  A    between atoms: C_5  and  C_6 
REMARK    5  A    between atoms: C_6  and  C_7 
REMARK    6  A    between atoms: C_7  and  C_8 
REMARK    7  A    between atoms: C_8  and  C_9 
REMARK    8  A    between atoms: C_9  and  C_10 
REMARK    9  A    between atoms: C_10  and  C_11 
REMARK   10  A    between atoms: C_11  and  C_12 
REMARK   11  A    between atoms: C_12  and  C_13 
REMARK   12  A    between atoms: C_13  and  C_14 
REMARK   13  A    between atoms: C_14  and  C_15 
REMARK   14  A    between atoms: C_15  and  C_16 
REMARK   15  A    between atoms: C_16  and  O_17 
REMARK   16  A    between atoms: O_17  and  C_18 
REMARK   17  A    between atoms: C_18  and  C_20 
REMARK   18  A    between atoms: C_20  and  C_21 
REMARK   19  A    between atoms: C_20  and  N_29 
REMARK   20  A    between atoms: C_21  and  C_22 
REMARK   21  A    between atoms: C_22  and  C_23 
REMARK   22  A    between atoms: C_23  and  N_24 
REMARK       I    between atoms: N_24  and  C_26 
REMARK       I    between atoms: C_26  and  N_27 
REMARK       I    between atoms: N_29  and  C_30 
REMARK   23  A    between atoms: C_30  and  C_32 
REMARK   24  A    between atoms: C_32  and  C_33 
REMARK   25  A    between atoms: C_32  and  N_41 
REMARK   26  A    between atoms: C_33  and  C_34 
REMARK   27  A    between atoms: C_37  and  O_40 
REMARK       I    between atoms: N_41  and  C_42 
ROOT
HETATM    1  C   UNL     1      18.962   7.849  10.359  1.00  0.00     0.184 C 
ENDROOT
BRANCH   1   2
HETATM    2  C   UNL     1      18.553   6.981   9.139  1.00  0.00     0.281 C 
HETATM    3  O   UNL     1      19.333   6.440   8.389  1.00  0.00    -0.263 OA
BRANCH   2   4
HETATM    4  O   UNL     1      17.188   6.936   9.011  1.00  0.00    -0.320 OA
BRANCH   4   5
HETATM    5  C   UNL     1      16.698   6.203   7.876  1.00  0.00     0.178 C 
BRANCH   5   6
HETATM    6  C   UNL     1      16.805   7.027   6.596  1.00  0.00     0.027 C 
BRANCH   6   7
HETATM    7  C   UNL     1      15.995   8.317   6.701  1.00  0.00     0.002 C 
BRANCH   7   8
HETATM    8  C   UNL     1      16.113   9.141   5.427  1.00  0.00     0.000 C 
BRANCH   8   9
HETATM    9  C   UNL     1      15.296  10.419   5.546  1.00  0.00     0.000 C 
BRANCH   9  10
HETATM   10  C   UNL     1      15.415  11.240   4.273  1.00  0.00     0.000 C 
BRANCH  10  11
HETATM   11  C   UNL     1      14.601  12.516   4.396  1.00  0.00     0.000 C 
BRANCH  11  12
HETATM   12  C   UNL     1      14.721  13.332   3.122  1.00  0.00     0.000 C 
BRANCH  12  13
HETATM   13  C   UNL     1      13.908  14.607   3.245  1.00  0.00     0.000 C 
BRANCH  13  14
HETATM   14  C   UNL     1      14.031  15.423   1.971  1.00  0.00     0.000 C 
BRANCH  14  15
HETATM   15  C   UNL     1      13.217  16.698   2.094  1.00  0.00     0.000 C 
BRANCH  15  16
HETATM   16  C   UNL     1      13.340  17.517   0.823  1.00  0.00     0.000 C 
BRANCH  16  17
HETATM   17  C   UNL     1      12.527  18.795   0.946  1.00  0.00     0.000 C 
BRANCH  17  18
HETATM   18  C   UNL     1      12.649  19.617  -0.326  1.00  0.00    -0.000 C 
BRANCH  18  19
HETATM   19  C   UNL     1      11.836  20.898  -0.212  1.00  0.00    -0.005 C 
HETATM   20  C   UNL     1      11.959  21.715  -1.482  1.00  0.00     0.005 C 
ENDBRANCH  18  19
ENDBRANCH  17  18
ENDBRANCH  16  17
ENDBRANCH  15  16
ENDBRANCH  14  15
ENDBRANCH  13  14
ENDBRANCH  12  13
ENDBRANCH  11  12
ENDBRANCH  10  11
ENDBRANCH   9  10
ENDBRANCH   8   9
ENDBRANCH   7   8
ENDBRANCH   6   7
ENDBRANCH   5   6
ENDBRANCH   4   5
ENDBRANCH   2   4
ENDBRANCH   1   2
BRANCH   1  21
HETATM   21  C   UNL     1      20.276   7.298  10.972  1.00  0.00     0.037 C 
BRANCH  21  22
HETATM   22  C   UNL     1      20.754   8.100  12.185  1.00  0.00     0.023 C 
BRANCH  22  23
HETATM   23  C   UNL     1      19.734   8.072  13.315  1.00  0.00     0.138 C 
BRANCH  23  24
HETATM   24  N   UNL     1      20.258   8.890  14.421  1.00  0.00    -0.227 N 
HETATM   25  C   UNL     1      19.977  10.141  14.390  1.00  0.00     0.665 C 
HETATM   26  N   UNL     1      19.225  10.801  13.483  1.00  0.00    -0.235 N 
HETATM   27  N   UNL     1      20.440  10.987  15.326  1.00  0.00    -0.235 N 
HETATM   28  H   UNL     1      18.869  10.316  12.669  1.00  0.00     0.174 HD
HETATM   29  H   UNL     1      19.055  11.786  13.497  1.00  0.00     0.174 HD
HETATM   30  H   UNL     1      20.998  10.598  16.075  1.00  0.00     0.174 HD
HETATM   31  H   UNL     1      20.220  11.968  15.343  1.00  0.00     0.174 HD
ATOM     32  HN  UNL     1      20.815   8.483  15.172  1.00  0.00     0.177 HD
ENDBRANCH  23  24
ENDBRANCH  22  23
ENDBRANCH  21  22
ENDBRANCH   1  21
BRANCH   1  33
HETATM   33  N   UNL     1      19.174   9.262   9.995  1.00  0.00    -0.345 N 
HETATM   34  C   UNL     1      18.196  10.221  10.058  1.00  0.00     0.241 C 
HETATM   35  O   UNL     1      17.051  10.000  10.489  1.00  0.00    -0.271 OA
HETATM   36  H   UNL     1      20.097   9.506   9.635  1.00  0.00     0.163 HD
BRANCH  34  37
HETATM   37  C   UNL     1      18.623  11.672   9.691  1.00  0.00     0.180 C 
BRANCH  37  38
HETATM   38  C   UNL     1      17.395  12.396   9.090  1.00  0.00     0.073 C 
BRANCH  38  39
HETATM   39  C   UNL     1      17.660  13.821   8.656  1.00  0.00    -0.056 A 
HETATM   40  C   UNL     1      18.612  14.119   7.672  1.00  0.00     0.010 A 
HETATM   41  C   UNL     1      18.830  15.443   7.279  1.00  0.00     0.037 A 
HETATM   42  C   UNL     1      18.096  16.464   7.880  1.00  0.00     0.065 A 
HETATM   43  C   UNL     1      17.165  16.189   8.870  1.00  0.00     0.037 A 
HETATM   44  C   UNL     1      16.936  14.870   9.249  1.00  0.00     0.010 A 
BRANCH  42  45
HETATM   45  O   UNL     1      18.239  17.770   7.515  1.00  0.00    -0.361 OA
HETATM   46  H   UNL     1      18.841  17.818   6.756  1.00  0.00     0.217 HD
ENDBRANCH  42  45
ENDBRANCH  38  39
ENDBRANCH  37  38
BRANCH  37  47
HETATM   47  N   UNL     1      19.137  12.422  10.855  1.00  0.00    -0.348 N 
HETATM   48  C   UNL     1      20.477  12.494  11.143  1.00  0.00     0.214 C 
HETATM   49  O   UNL     1      21.319  11.863  10.515  1.00  0.00    -0.274 OA
HETATM   50  C   UNL     1      20.851  13.368  12.321  1.00  0.00     0.117 C 
HETATM   51  H   UNL     1      18.477  12.962  11.403  1.00  0.00     0.163 HD
ENDBRANCH  37  47
ENDBRANCH  34  37
ENDBRANCH   1  33
TORSDOF 27
