REMARK  11 active torsions:
REMARK  status: ('A' for Active; 'I' for Inactive)
REMARK       I    between atoms: C_2  and  N_4 
REMARK    1  A    between atoms: N_4  and  C_5 
REMARK    2  A    between atoms: C_6  and  O_21 
REMARK    3  A    between atoms: C_8  and  C_17 
REMARK    4  A    between atoms: C_8  and  O_20 
REMARK    5  A    between atoms: C_10  and  C_11 
REMARK    6  A    between atoms: C_11  and  C_12 
REMARK    7  A    between atoms: C_11  and  O_16 
REMARK    8  A    between atoms: C_12  and  C_13 
REMARK    9  A    between atoms: C_12  and  O_15 
REMARK   10  A    between atoms: C_13  and  O_14 
REMARK   11  A    between atoms: C_17  and  O_19 
ROOT
HETATM    1  C   UNL     1       4.668   0.891   0.772  1.00  0.00     0.145 C 
HETATM    2  C   UNL     1       5.177   1.971   1.752  1.00  0.00     0.149 C 
HETATM    3  C   UNL     1       4.934   3.380   1.208  1.00  0.00     0.114 C 
HETATM    4  C   UNL     1       5.434   3.517  -0.234  1.00  0.00     0.253 C 
HETATM    5  O   UNL     1       4.870   2.482  -1.061  1.00  0.00    -0.336 OA
HETATM    6  C   UNL     1       5.268   1.163  -0.630  1.00  0.00     0.182 C 
ENDROOT
BRANCH   6   7
HETATM    7  C   UNL     1       4.873   0.079  -1.666  1.00  0.00     0.180 C 
BRANCH   7   8
HETATM    8  C   UNL     1       5.506   0.290  -3.062  1.00  0.00     0.173 C 
BRANCH   8   9
HETATM    9  C   UNL     1       5.119  -0.845  -4.028  1.00  0.00     0.198 C 
BRANCH   9  10
HETATM   10  O   UNL     1       5.749  -0.650  -5.294  1.00  0.00    -0.398 OA
HETATM   11  H   UNL     1       5.768   0.310  -5.461  1.00  0.00     0.209 HD
ENDBRANCH   9  10
ENDBRANCH   8   9
BRANCH   8  12
HETATM   12  O   UNL     1       5.111   1.540  -3.648  1.00  0.00    -0.391 OA
HETATM   13  H   UNL     1       4.163   1.474  -3.864  1.00  0.00     0.210 HD
ENDBRANCH   8  12
ENDBRANCH   7   8
BRANCH   7  14
HETATM   14  O   UNL     1       5.236  -1.216  -1.180  1.00  0.00    -0.390 OA
HETATM   15  H   UNL     1       6.193  -1.233  -0.992  1.00  0.00     0.210 HD
ENDBRANCH   7  14
ENDBRANCH   6   7
BRANCH   1  16
HETATM   16  N   UNL     1       3.200   0.874   0.731  1.00  0.00    -0.352 N 
HETATM   17  C   UNL     1       2.467   0.122   1.624  1.00  0.00     0.214 C 
HETATM   18  C   UNL     1       0.979   0.242   1.443  1.00  0.00     0.117 C 
HETATM   19  O   UNL     1       2.969  -0.567   2.503  1.00  0.00    -0.274 OA
HETATM   20  H   UNL     1       2.715   1.566   0.174  1.00  0.00     0.163 HD
ENDBRANCH   1  16
BRANCH   2  21
HETATM   21  O   UNL     1       6.571   1.775   2.016  1.00  0.00    -0.393 OA
HETATM   22  H   UNL     1       7.091   2.311   1.383  1.00  0.00     0.210 HD
ENDBRANCH   2  21
BRANCH   4  23
HETATM   23  C   UNL     1       4.955   4.898  -0.786  1.00  0.00     0.205 C 
HETATM   24  O   UNL     1       5.240   5.985  -0.313  1.00  0.00    -0.646 OA
BRANCH  23  25
HETATM   25  O   UNL     1       4.199   4.760  -1.908  1.00  0.00    -0.772 OA
HETATM   26  H   UNL     1       4.168   3.807  -2.155  1.00  0.00     0.167 HD
ENDBRANCH  23  25
ENDBRANCH   4  23
BRANCH   4  27
HETATM   27  O   UNL     1       6.850   3.409  -0.256  1.00  0.00    -0.357 OA
HETATM   28  H   UNL     1       7.139   3.799  -1.102  1.00  0.00     0.213 HD
ENDBRANCH   4  27
TORSDOF 11
