REMARK  20 active torsions:
REMARK  status: ('A' for Active; 'I' for Inactive)
REMARK       I    between atoms: C_2  and  N_4 
REMARK    1  A    between atoms: N_4  and  C_5 
REMARK    2  A    between atoms: C_5  and  C_6 
REMARK    3  A    between atoms: C_5  and  C_11 
REMARK    4  A    between atoms: C_6  and  C_7 
REMARK    5  A    between atoms: C_7  and  C_8 
REMARK    6  A    between atoms: C_8  and  C_9 
REMARK    7  A    between atoms: C_9  and  N_10 
REMARK       I    between atoms: C_11  and  N_13 
REMARK    8  A    between atoms: N_13  and  C_14 
REMARK    9  A    between atoms: C_14  and  C_15 
REMARK       I    between atoms: C_15  and  N_17 
REMARK   10  A    between atoms: N_17  and  C_18 
REMARK   11  A    between atoms: C_18  and  C_19 
REMARK   12  A    between atoms: C_18  and  C_26 
REMARK   13  A    between atoms: C_19  and  C_20 
REMARK       I    between atoms: C_26  and  N_28 
REMARK   14  A    between atoms: N_28  and  C_29 
REMARK   15  A    between atoms: C_29  and  C_30 
REMARK   16  A    between atoms: C_29  and  C_35 
REMARK   17  A    between atoms: C_30  and  C_31 
REMARK   18  A    between atoms: C_31  and  C_32 
REMARK   19  A    between atoms: C_32  and  C_33 
REMARK   20  A    between atoms: C_33  and  N_34 
REMARK       I    between atoms: C_35  and  N_37 
ROOT
HETATM    1  C   UNL     1      10.837   5.138   1.899  1.00  0.00     0.182 C 
ENDROOT
BRANCH   1   2
HETATM    2  N   UNL     1       9.367   5.069   1.923  1.00  0.00    -0.346 N 
HETATM    3  C   UNL     1       8.668   3.925   1.615  1.00  0.00     0.236 C 
HETATM    4  O   UNL     1       9.222   2.862   1.336  1.00  0.00    -0.272 OA
HETATM    5  H   UNL     1       8.876   5.850   2.361  1.00  0.00     0.163 HD
BRANCH   3   6
HETATM    6  C   UNL     1       7.146   4.038   1.683  1.00  0.00     0.225 C 
BRANCH   6   7
HETATM    7  N   UNL     1       6.665   3.571   2.962  1.00  0.00    -0.351 N 
HETATM    8  C   UNL     1       6.354   4.458   3.965  1.00  0.00     0.240 C 
HETATM    9  O   UNL     1       6.537   5.663   3.822  1.00  0.00    -0.271 OA
HETATM   10  H   UNL     1       6.477   2.587   3.102  1.00  0.00     0.163 HD
BRANCH   8  11
HETATM   11  C   UNL     1       5.843   3.832   5.287  1.00  0.00     0.176 C 
BRANCH  11  12
HETATM   12  N   UNL     1       5.626   2.379   5.169  1.00  0.00    -0.348 N 
HETATM   13  C   UNL     1       4.430   1.859   4.725  1.00  0.00     0.214 C 
HETATM   14  C   UNL     1       4.390   0.355   4.701  1.00  0.00     0.117 C 
HETATM   15  O   UNL     1       3.497   2.548   4.333  1.00  0.00    -0.274 OA
HETATM   16  H   UNL     1       6.392   1.754   5.385  1.00  0.00     0.163 HD
ENDBRANCH  11  12
BRANCH  11  17
HETATM   17  C   UNL     1       6.831   4.098   6.437  1.00  0.00     0.035 C 
BRANCH  17  18
HETATM   18  C   UNL     1       7.097   5.573   6.775  1.00  0.00     0.004 C 
BRANCH  18  19
HETATM   19  C   UNL     1       5.858   6.398   7.139  1.00  0.00     0.030 C 
BRANCH  19  20
HETATM   20  C   UNL     1       5.192   5.905   8.422  1.00  0.00     0.267 C 
BRANCH  20  21
HETATM   21  N   UNL     1       4.031   6.720   8.749  1.00  0.00     0.078 N 
HETATM   22  H   UNL     1       4.313   7.690   8.884  1.00  0.00     0.312 HD
HETATM   23  H   UNL     1       3.635   6.408   9.635  1.00  0.00     0.312 HD
ENDBRANCH  20  21
ENDBRANCH  19  20
ENDBRANCH  18  19
ENDBRANCH  17  18
ENDBRANCH  11  17
ENDBRANCH   8  11
ENDBRANCH   6   7
ENDBRANCH   3   6
ENDBRANCH   1   2
BRANCH   1  24
HETATM   24  C   UNL     1      11.419   4.845   0.496  1.00  0.00     0.093 C 
BRANCH  24  25
HETATM   25  C   UNL     1      11.003   5.836  -0.540  1.00  0.00     0.028 A 
HETATM   26  C   UNL     1      11.495   7.073  -0.899  1.00  0.00     0.114 A 
HETATM   27  N   UNL     1      10.773   7.609  -1.929  1.00  0.00    -0.360 N 
HETATM   28  C   UNL     1       9.833   6.731  -2.186  1.00  0.00     0.180 A 
ATOM     29  HN  UNL     1      10.931   8.501  -2.397  1.00  0.00     0.166 HD
HETATM   30  N   UNL     1       9.930   5.640  -1.374  1.00  0.00    -0.354 N 
HETATM   31  H   UNL     1       9.315   4.837  -1.384  1.00  0.00     0.166 HD
ENDBRANCH  24  25
ENDBRANCH   1  24
BRANCH   1  32
HETATM   32  C   UNL     1      11.327   6.520   2.413  1.00  0.00     0.241 C 
HETATM   33  O   UNL     1      10.546   7.379   2.815  1.00  0.00    -0.271 OA
HETATM   34  N   UNL     1      12.698   6.712   2.377  1.00  0.00    -0.346 N 
HETATM   35  H   UNL     1      13.313   5.910   2.364  1.00  0.00     0.163 HD
BRANCH  34  36
HETATM   36  C   UNL     1      13.315   8.028   2.626  1.00  0.00     0.176 C 
BRANCH  36  37
HETATM   37  C   UNL     1      13.643   8.184   4.121  1.00  0.00     0.035 C 
BRANCH  37  38
HETATM   38  C   UNL     1      14.207   9.553   4.537  1.00  0.00     0.004 C 
BRANCH  38  39
HETATM   39  C   UNL     1      13.326  10.756   4.186  1.00  0.00     0.030 C 
BRANCH  39  40
HETATM   40  C   UNL     1      11.988  10.721   4.921  1.00  0.00     0.267 C 
BRANCH  40  41
HETATM   41  N   UNL     1      11.186  11.890   4.589  1.00  0.00     0.078 N 
HETATM   42  H   UNL     1      11.664  12.737   4.889  1.00  0.00     0.312 HD
HETATM   43  H   UNL     1      10.307  11.850   5.103  1.00  0.00     0.312 HD
ENDBRANCH  40  41
ENDBRANCH  39  40
ENDBRANCH  38  39
ENDBRANCH  37  38
ENDBRANCH  36  37
BRANCH  36  44
HETATM   44  C   UNL     1      14.584   8.221   1.757  1.00  0.00     0.238 C 
HETATM   45  O   UNL     1      15.229   9.266   1.700  1.00  0.00    -0.271 OA
HETATM   46  N   UNL     1      15.039   7.131   1.063  1.00  0.00    -0.368 N 
HETATM   47  H   UNL     1      14.357   6.499   0.669  1.00  0.00     0.159 HD
HETATM   48  H   UNL     1      15.821   7.349   0.455  1.00  0.00     0.159 HD
ENDBRANCH  36  44
ENDBRANCH  34  36
ENDBRANCH   1  32
TORSDOF 20
