REMARK  19 active torsions:
REMARK  status: ('A' for Active; 'I' for Inactive)
REMARK    1  A    between atoms: C_2  and  C_3 
REMARK    2  A    between atoms: C_3  and  C_4 
REMARK    3  A    between atoms: C_4  and  O_5 
REMARK    4  A    between atoms: O_5  and  C_6 
REMARK    5  A    between atoms: C_6  and  C_8 
REMARK    6  A    between atoms: C_8  and  C_9 
REMARK    7  A    between atoms: C_9  and  C_10 
REMARK    8  A    between atoms: C_9  and  C_18 
REMARK    9  A    between atoms: C_9  and  O_25 
REMARK   10  A    between atoms: C_10  and  C_11 
REMARK   11  A    between atoms: C_11  and  O_13 
REMARK   12  A    between atoms: O_13  and  C_14 
REMARK   13  A    between atoms: C_14  and  C_15 
REMARK   14  A    between atoms: C_15  and  C_16 
REMARK   15  A    between atoms: C_18  and  O_20 
REMARK   16  A    between atoms: O_20  and  C_21 
REMARK   17  A    between atoms: C_21  and  C_22 
REMARK   18  A    between atoms: C_22  and  C_23 
REMARK   19  A    between atoms: O_25  and  C_26 
ROOT
HETATM    1  C   UNL     1       8.417  -3.523  -2.633  1.00  0.00     0.175 C 
ENDROOT
BRANCH   1   2
HETATM    2  C   UNL     1       6.887  -3.507  -2.554  1.00  0.00     0.161 C 
BRANCH   2   3
HETATM    3  C   UNL     1       6.229  -3.476  -3.908  1.00  0.00     0.262 C 
HETATM    4  O   UNL     1       5.942  -2.471  -4.532  1.00  0.00    -0.265 OA
BRANCH   3   5
HETATM    5  O   UNL     1       5.947  -4.744  -4.315  1.00  0.00    -0.321 OA
BRANCH   5   6
HETATM    6  C   UNL     1       4.573  -4.925  -4.663  1.00  0.00     0.178 C 
BRANCH   6   7
HETATM    7  C   UNL     1       4.377  -5.217  -6.145  1.00  0.00     0.026 C 
BRANCH   7   8
HETATM    8  C   UNL     1       5.131  -6.465  -6.601  1.00  0.00    -0.002 C 
HETATM    9  C   UNL     1       4.868  -6.764  -8.068  1.00  0.00     0.005 C 
ENDBRANCH   7   8
ENDBRANCH   6   7
ENDBRANCH   5   6
ENDBRANCH   3   5
ENDBRANCH   2   3
ENDBRANCH   1   2
BRANCH   1  10
HETATM   10  C   UNL     1       8.976  -2.254  -3.300  1.00  0.00     0.161 C 
BRANCH  10  11
HETATM   11  C   UNL     1       8.610  -0.943  -2.627  1.00  0.00     0.262 C 
HETATM   12  O   UNL     1       7.476  -0.525  -2.474  1.00  0.00    -0.265 OA
BRANCH  11  13
HETATM   13  O   UNL     1       9.737  -0.210  -2.395  1.00  0.00    -0.321 OA
BRANCH  13  14
HETATM   14  C   UNL     1       9.633   1.151  -2.834  1.00  0.00     0.178 C 
BRANCH  14  15
HETATM   15  C   UNL     1       9.613   2.147  -1.682  1.00  0.00     0.026 C 
BRANCH  15  16
HETATM   16  C   UNL     1       9.619   3.578  -2.229  1.00  0.00    -0.002 C 
HETATM   17  C   UNL     1       9.601   4.617  -1.122  1.00  0.00     0.005 C 
ENDBRANCH  15  16
ENDBRANCH  14  15
ENDBRANCH  13  14
ENDBRANCH  11  13
ENDBRANCH  10  11
ENDBRANCH   1  10
BRANCH   1  18
HETATM   18  C   UNL     1       9.022  -3.583  -1.211  1.00  0.00     0.295 C 
HETATM   19  O   UNL     1       8.449  -3.190  -0.204  1.00  0.00    -0.262 OA
BRANCH  18  20
HETATM   20  O   UNL     1      10.317  -4.027  -1.250  1.00  0.00    -0.319 OA
BRANCH  20  21
HETATM   21  C   UNL     1      11.115  -3.726  -0.096  1.00  0.00     0.178 C 
BRANCH  21  22
HETATM   22  C   UNL     1      11.531  -4.975   0.678  1.00  0.00     0.026 C 
BRANCH  22  23
HETATM   23  C   UNL     1      12.431  -4.577   1.854  1.00  0.00    -0.002 C 
HETATM   24  C   UNL     1      12.884  -5.770   2.678  1.00  0.00     0.005 C 
ENDBRANCH  22  23
ENDBRANCH  21  22
ENDBRANCH  20  21
ENDBRANCH  18  20
ENDBRANCH   1  18
BRANCH   1  25
HETATM   25  O   UNL     1       8.872  -4.655  -3.438  1.00  0.00    -0.299 OA
BRANCH  25  26
HETATM   26  C   UNL     1       8.652  -5.900  -2.933  1.00  0.00     0.256 C 
HETATM   27  O   UNL     1       8.080  -6.134  -1.876  1.00  0.00    -0.266 OA
HETATM   28  C   UNL     1       9.187  -6.983  -3.815  1.00  0.00     0.126 C 
ENDBRANCH  25  26
ENDBRANCH   1  25
TORSDOF 19
