REMARK  21 active torsions:
REMARK  status: ('A' for Active; 'I' for Inactive)
REMARK    1  A    between atoms: CB_2  and  CA_4 
REMARK    2  A    between atoms: CA_4  and  C_5 
REMARK    3  A    between atoms: CA_4  and  N_20 
REMARK       I    between atoms: C_5  and  N_7 
REMARK    4  A    between atoms: N_7  and  CA_8 
REMARK    5  A    between atoms: CA_8  and  CB_9 
REMARK    6  A    between atoms: CA_8  and  C_17 
REMARK    7  A    between atoms: CB_9  and  CG_10 
REMARK    8  A    between atoms: CZ_13  and  OH_16 
REMARK    9  A    between atoms: C_17  and  OXT_19 
REMARK       I    between atoms: N_20  and  C_21 
REMARK   10  A    between atoms: C_21  and  CA_23 
REMARK   11  A    between atoms: CA_23  and  CB_24 
REMARK   12  A    between atoms: CA_23  and  N_28 
REMARK   13  A    between atoms: CB_24  and  CG_25 
REMARK   14  A    between atoms: CG_25  and  OD2_27 
REMARK       I    between atoms: N_28  and  C_29 
REMARK   15  A    between atoms: C_29  and  CA_31 
REMARK   16  A    between atoms: CA_31  and  CB_32 
REMARK   17  A    between atoms: CA_31  and  N_37 
REMARK   18  A    between atoms: CB_32  and  CG_33 
REMARK   19  A    between atoms: CG_33  and  CD_34 
REMARK   20  A    between atoms: CD_34  and  CE_35 
REMARK   21  A    between atoms: CE_35  and  NZ_36 
REMARK       I    between atoms: N_37  and  C_47 
ROOT
ATOM      1  N   LYS A   1       4.467   1.500   0.306  1.00  0.00    -0.346 N 
ATOM      2  C   LYS A   1       5.171   2.667   0.095  1.00  0.00     0.241 C 
ATOM      3  O   LYS A   1       4.623   3.709  -0.249  1.00  0.00    -0.271 OA
ATOM      4  H   LYS A   1       5.007   0.644   0.410  1.00  0.00     0.163 HD
ENDROOT
BRANCH   2   5
ATOM      5  CA  LYS A   1       6.708   2.555   0.283  1.00  0.00     0.186 C 
BRANCH   5   6
ATOM      6  CB  LYS A   1       7.064   2.010   1.670  1.00  0.00     0.144 C 
BRANCH   6   7
ATOM      7  CG  LYS A   1       8.554   1.899   1.833  1.00  0.00     0.141 C 
ATOM      8  OD1 LYS A   1       9.312   2.857   1.842  1.00  0.00    -0.650 OA
BRANCH   7   9
ATOM      9  OD2 LYS A   1       9.001   0.627   1.948  1.00  0.00    -0.776 OA
ATOM     10  HD2 LYS A   1       8.298  -0.052   1.887  1.00  0.00     0.167 HD
ENDBRANCH   7   9
ENDBRANCH   6   7
ENDBRANCH   5   6
BRANCH   5  11
ATOM     11  N   LYS A   1       7.283   1.812  -0.848  1.00  0.00    -0.346 N 
ATOM     12  C   LYS A   1       7.196   0.450  -0.998  1.00  0.00     0.241 C 
ATOM     13  O   LYS A   1       6.623  -0.252  -0.166  1.00  0.00    -0.271 OA
ATOM     14  H   LYS A   1       7.778   2.346  -1.564  1.00  0.00     0.163 HD
BRANCH  12  15
ATOM     15  CA  LYS A   1       7.847  -0.113  -2.283  1.00  0.00     0.176 C 
BRANCH  15  16
ATOM     16  CB  LYS A   1       8.071  -1.624  -2.131  1.00  0.00     0.035 C 
BRANCH  16  17
ATOM     17  CG  LYS A   1       8.761  -2.291  -3.326  1.00  0.00     0.004 C 
BRANCH  17  18
ATOM     18  CD  LYS A   1      10.172  -1.752  -3.585  1.00  0.00     0.030 C 
BRANCH  18  19
ATOM     19  CE  LYS A   1      10.860  -2.410  -4.781  1.00  0.00     0.267 C 
BRANCH  19  20
ATOM     20  NZ  LYS A   1      11.026  -3.846  -4.595  1.00  0.00     0.078 N 
ATOM     21  HZ1 LYS A   1      11.606  -4.019  -3.774  1.00  0.00     0.312 HD
ATOM     22  HZ2 LYS A   1      11.538  -4.230  -5.388  1.00  0.00     0.312 HD
ENDBRANCH  19  20
ENDBRANCH  18  19
ENDBRANCH  17  18
ENDBRANCH  16  17
ENDBRANCH  15  16
BRANCH  15  23
ATOM     23  N   LYS A   1       7.008   0.156  -3.448  1.00  0.00    -0.348 N 
HETATM   24  C   UNK A   0       7.170   1.275  -4.226  1.00  0.00     0.214 C 
HETATM   25  O   UNK A   0       7.965   2.167  -3.946  1.00  0.00    -0.274 OA
HETATM   26  C   UNK A   0       6.325   1.295  -5.475  1.00  0.00     0.117 C 
ATOM     27  H   LYS A   1       6.268  -0.500  -3.669  1.00  0.00     0.163 HD
ENDBRANCH  15  23
ENDBRANCH  12  15
ENDBRANCH   5  11
ENDBRANCH   2   5
BRANCH   1  28
ATOM     28  CA  LYS A   1       3.017   1.393   0.117  1.00  0.00     0.180 C 
BRANCH  28  29
ATOM     29  CB  LYS A   1       2.566  -0.097   0.109  1.00  0.00     0.009 C 
ATOM     30  CG1 LYS A   1       1.047  -0.242  -0.052  1.00  0.00     0.012 C 
ATOM     31  CG2 LYS A   1       3.252  -0.937  -0.972  1.00  0.00     0.012 C 
ENDBRANCH  28  29
BRANCH  28  32
ATOM     32  C   LYS A   1       2.315   2.060   1.321  1.00  0.00     0.241 C 
ATOM     33  O   LYS A   1       2.601   1.758   2.481  1.00  0.00    -0.271 OA
ATOM     34  N   LYS A   1       1.296   2.926   1.022  1.00  0.00    -0.345 N 
ATOM     35  H   LYS A   1       1.151   3.240   0.070  1.00  0.00     0.163 HD
BRANCH  34  36
ATOM     36  CA  LYS A   1       0.399   3.477   2.047  1.00  0.00     0.186 C 
BRANCH  36  37
ATOM     37  CB  LYS A   1       1.107   4.258   3.163  1.00  0.00     0.074 C 
BRANCH  37  38
ATOM     38  CG  LYS A   1       1.918   5.449   2.722  1.00  0.00    -0.056 A 
ATOM     39  CD1 LYS A   1       1.333   6.717   2.606  1.00  0.00     0.010 A 
ATOM     40  CE1 LYS A   1       2.114   7.826   2.280  1.00  0.00     0.037 A 
ATOM     41  CZ  LYS A   1       3.480   7.663   2.062  1.00  0.00     0.065 A 
ATOM     42  CE2 LYS A   1       4.065   6.412   2.132  1.00  0.00     0.037 A 
ATOM     43  CD2 LYS A   1       3.288   5.304   2.462  1.00  0.00     0.010 A 
BRANCH  41  44
ATOM     44  OH  LYS A   1       4.283   8.730   1.782  1.00  0.00    -0.361 OA
ATOM     45  HH  LYS A   1       3.741   9.535   1.798  1.00  0.00     0.217 HD
ENDBRANCH  41  44
ENDBRANCH  37  38
ENDBRANCH  36  37
BRANCH  36  46
ATOM     46  C   LYS A   1      -0.711   4.305   1.376  1.00  0.00     0.163 C 
ATOM     47  O   LYS A   1      -0.774   4.506   0.171  1.00  0.00    -0.648 OA
BRANCH  46  48
ATOM     48  OXT LYS A   1      -1.670   4.759   2.220  1.00  0.00    -0.775 OA
ATOM     49  HXT LYS A   1      -1.566   4.499   3.156  1.00  0.00     0.167 HD
ENDBRANCH  46  48
ENDBRANCH  36  46
ENDBRANCH  34  36
ENDBRANCH  28  32
ENDBRANCH   1  28
TORSDOF 21
