REMARK  6 active torsions:
REMARK  status: ('A' for Active; 'I' for Inactive)
REMARK       I    between atoms: C_2  and  N_4 
REMARK    1  A    between atoms: N_4  and  CA_5 
REMARK    2  A    between atoms: CA_5  and  CB_6 
REMARK    3  A    between atoms: CA_5  and  C_14 
REMARK    4  A    between atoms: CB_6  and  CG_7 
REMARK    5  A    between atoms: CZ_10  and  OH_13 
REMARK    6  A    between atoms: C_14  and  OXT_16 
ROOT
ATOM      1  CA  TYR A   1       4.595  -1.325  -0.274  1.00  0.00     0.186 C 
ENDROOT
BRANCH   1   2
ATOM      2  N   TYR A   1       3.125  -1.295  -0.287  1.00  0.00    -0.347 N 
HETATM    3  C   UNK A   0       2.415  -0.994  -1.416  1.00  0.00     0.214 C 
HETATM    4  C   UNK A   0       0.937  -0.829  -1.213  1.00  0.00     0.117 C 
HETATM    5  O   UNK A   0       2.967  -0.914  -2.510  1.00  0.00    -0.274 OA
ATOM      6  H   TYR A   1       2.635  -1.542   0.566  1.00  0.00     0.163 HD
ENDBRANCH   1   2
BRANCH   1   7
ATOM      7  CB  TYR A   1       5.160  -0.923   1.100  1.00  0.00     0.074 C 
BRANCH   7   8
ATOM      8  CG  TYR A   1       4.759   0.452   1.614  1.00  0.00    -0.056 A 
ATOM      9  CD1 TYR A   1       4.071   1.400   0.838  1.00  0.00     0.010 A 
ATOM     10  CE1 TYR A   1       3.632   2.606   1.386  1.00  0.00     0.037 A 
ATOM     11  CZ  TYR A   1       3.923   2.895   2.711  1.00  0.00     0.065 A 
ATOM     12  CE2 TYR A   1       4.662   2.007   3.485  1.00  0.00     0.037 A 
ATOM     13  CD2 TYR A   1       5.078   0.791   2.939  1.00  0.00     0.010 A 
BRANCH  11  14
ATOM     14  OH  TYR A   1       3.490   4.050   3.291  1.00  0.00    -0.361 OA
ATOM     15  HH  TYR A   1       2.923   4.520   2.657  1.00  0.00     0.217 HD
ENDBRANCH  11  14
ENDBRANCH   7   8
ENDBRANCH   1   7
BRANCH   1  16
ATOM     16  C   TYR A   1       5.072  -2.715  -0.710  1.00  0.00     0.163 C 
ATOM     17  O   TYR A   1       5.811  -3.438  -0.056  1.00  0.00    -0.648 OA
BRANCH  16  18
ATOM     18  OXT TYR A   1       4.634  -3.061  -1.949  1.00  0.00    -0.775 OA
ATOM     19  HXT TYR A   1       4.101  -2.347  -2.375  1.00  0.00     0.167 HD
ENDBRANCH  16  18
ENDBRANCH   1  16
TORSDOF 6
