REMARK  4 active torsions:
REMARK  status: ('A' for Active; 'I' for Inactive)
REMARK    1  A    between atoms: C_4  and  S_26 
REMARK    2  A    between atoms: C_5  and  N_8 
REMARK    3  A    between atoms: N_8  and  C_9 
REMARK    4  A    between atoms: C_12  and  O_15 
ROOT
HETATM    1 NA   UNL     2      -0.425   0.302  -1.955  1.00  0.00     0.000 Na
ENDROOT
TORSDOF 4
