REMARK  6 active torsions:
REMARK  status: ('A' for Active; 'I' for Inactive)
REMARK    1  A    between atoms: C6_4  and  N6_22 
REMARK    2  A    between atoms: N9_9  and  C1*_13 
REMARK    3  A    between atoms: C2*_14  and  O2*_21 
REMARK    4  A    between atoms: C3*_15  and  O3*_20 
REMARK    5  A    between atoms: C4*_16  and  C5*_18 
REMARK    6  A    between atoms: C5*_18  and  O5*_19 
ROOT
ATOM      1  C2    A A   1      -1.945   0.879  -0.635  1.00  0.00     0.183 A 
ATOM      2  N1    A A   1      -2.124  -0.458  -0.545  1.00  0.00    -0.337 N 
ATOM      3  H1    A A   1      -3.050  -0.871  -0.652  1.00  0.00     0.168 HD
ATOM      4  C6    A A   1      -1.042  -1.231  -0.310  1.00  0.00     0.131 A 
ATOM      5  C5    A A   1       0.215  -0.612  -0.230  1.00  0.00     0.122 A 
ATOM      6  C4    A A   1       0.250   0.772  -0.320  1.00  0.00     0.142 A 
ATOM      7  N3    A A   1      -0.803   1.592  -0.506  1.00  0.00    -0.336 N 
ATOM      8  H3    A A   1      -0.747   2.610  -0.544  1.00  0.00     0.168 HD
ATOM      9  N9    A A   1       1.560   1.097  -0.116  1.00  0.00    -0.297 N 
ATOM     10  C8    A A   1       2.259  -0.079   0.017  1.00  0.00     0.188 A 
ATOM     11  N7    A A   1       1.479  -1.133  -0.053  1.00  0.00    -0.346 N 
ATOM     12  H7    A A   1       1.748  -2.115   0.009  1.00  0.00     0.167 HD
ENDROOT
BRANCH   9  13
ATOM     13  C1*   A A   1       2.140   2.392   0.162  1.00  0.00     0.262 C 
ATOM     14  C2*   A A   1       1.631   3.046   1.442  1.00  0.00     0.198 C 
ATOM     15  C3*   A A   1       1.671   4.541   1.127  1.00  0.00     0.182 C 
ATOM     16  C4*   A A   1       2.159   4.623  -0.331  1.00  0.00     0.179 C 
ATOM     17  O4*   A A   1       1.926   3.324  -0.911  1.00  0.00    -0.353 OA
BRANCH  14  18
ATOM     18  O2*   A A   1       2.483   2.716   2.543  1.00  0.00    -0.388 OA
ATOM     19  H2*   A A   1       2.701   3.577   2.964  1.00  0.00     0.210 HD
ENDBRANCH  14  18
BRANCH  15  20
ATOM     20  O3*   A A   1       2.460   5.213   2.112  1.00  0.00    -0.390 OA
ATOM     21  H3*   A A   1       3.014   5.888   1.660  1.00  0.00     0.210 HD
ENDBRANCH  15  20
BRANCH  16  22
ATOM     22  C5*   A A   1       3.638   5.013  -0.474  1.00  0.00     0.198 C 
BRANCH  22  23
ATOM     23  O5*   A A   1       3.879   6.281   0.133  1.00  0.00    -0.398 OA
ATOM     24  H5*   A A   1       3.683   6.965  -0.534  1.00  0.00     0.209 HD
ENDBRANCH  22  23
ENDBRANCH  16  22
ENDBRANCH   9  13
BRANCH   4  25
ATOM     25  N6    A A   1      -1.218  -2.596  -0.140  1.00  0.00    -0.383 N 
ATOM     26  H61   A A   1      -2.071  -2.946  -0.550  1.00  0.00     0.157 HD
ATOM     27  H62   A A   1      -0.367  -3.135  -0.253  1.00  0.00     0.157 HD
ENDBRANCH   4  25
TORSDOF 6
