REMARK  3 active torsions:
REMARK  status: ('A' for Active; 'I' for Inactive)
REMARK    1  A    between atoms: CA_2  and  C_3 
REMARK    2  A    between atoms: CA_2  and  N_6 
REMARK    3  A    between atoms: C_3  and  OXT_5 
ROOT
ATOM      1  CB  ALA A   1       0.970   0.047  -0.057  1.00  0.00     0.054 C 
ATOM      2  CA  ALA A   1       2.493   0.053  -0.036  1.00  0.00     0.310 C 
ENDROOT
BRANCH   2   3
ATOM      3  C   ALA A   1       3.033  -0.182   1.387  1.00  0.00     0.173 C 
ATOM      4  O   ALA A   1       3.743  -1.128   1.704  1.00  0.00    -0.648 OA
BRANCH   3   5
ATOM      5  OXT ALA A   1       2.688   0.780   2.272  1.00  0.00    -0.775 OA
ATOM      6  HXT ALA A   1       2.151   1.503   1.895  1.00  0.00     0.167 HD
ENDBRANCH   3   5
ENDBRANCH   2   3
BRANCH   2   7
ATOM      7  N   ALA A   1       2.986  -0.998  -0.951  1.00  0.00     0.092 N 
ATOM      8  H1  ALA A   1       2.691  -1.906  -0.581  1.00  0.00     0.313 HD
ATOM      9  H2  ALA A   1       4.006  -1.035  -0.867  1.00  0.00     0.313 HD
ENDBRANCH   2   7
TORSDOF 3
