REMARK  6 active torsions:
REMARK  status: ('A' for Active; 'I' for Inactive)
REMARK    1  A    between atoms: C_1  and  O_13 
REMARK    2  A    between atoms: C_2  and  O_12 
REMARK    3  A    between atoms: C_3  and  C_9 
REMARK    4  A    between atoms: C_5  and  O_8 
REMARK    5  A    between atoms: C_6  and  O_7 
REMARK    6  A    between atoms: C_9  and  O_11 
ROOT
HETATM    1  C   UNL     1       0.702   1.424  -0.028  1.00  0.00     0.183 C 
HETATM    2  C   UNL     1       1.448   0.203   0.496  1.00  0.00     0.188 C 
HETATM    3  C   UNL     1       0.803  -1.024  -0.123  1.00  0.00     0.258 C 
HETATM    4  O   UNL     1      -0.596  -1.164   0.199  1.00  0.00    -0.341 OA
HETATM    5  C   UNL     1      -1.372  -0.020  -0.121  1.00  0.00     0.289 C 
HETATM    6  C   UNL     1      -0.777   1.325   0.368  1.00  0.00     0.204 C 
ENDROOT
BRANCH   3   7
HETATM    7  C   UNL     1       1.520  -2.336   0.185  1.00  0.00     0.321 C 
HETATM    8  O   UNL     1       2.200  -2.392   1.250  1.00  0.00    -0.260 OA
BRANCH   7   9
HETATM    9  O   UNL     1       1.302  -3.213  -0.719  1.00  0.00    -0.147 OA
HETATM   10 NA   UNL     2      -0.189  -3.051  -2.028  1.00  0.00     0.000 Na
ENDBRANCH   7   9
ENDBRANCH   3   7
BRANCH   2  11
HETATM   11  O   UNL     1       1.360   0.175   1.929  1.00  0.00    -0.390 OA
HETATM   12  H   UNL     1       1.707  -0.714   2.196  1.00  0.00     0.210 HD
ENDBRANCH   2  11
BRANCH   1  13
HETATM   13  O   UNL     1       0.774   1.488  -1.472  1.00  0.00    -0.390 OA
HETATM   14  H   UNL     1       1.709   1.648  -1.701  1.00  0.00     0.210 HD
ENDBRANCH   1  13
BRANCH   5  15
HETATM   15  O   UNL     1      -2.678  -0.236   0.396  1.00  0.00    -0.368 OA
HETATM   16  H   UNL     1      -2.655   0.069   1.325  1.00  0.00     0.212 HD
ENDBRANCH   5  15
BRANCH   6  17
HETATM   17  O   UNL     1      -1.496   2.426  -0.213  1.00  0.00    -0.388 OA
HETATM   18  H   UNL     1      -1.178   2.489  -1.135  1.00  0.00     0.210 HD
ENDBRANCH   6  17
TORSDOF 6
