REMARK  8 active torsions:
REMARK  status: ('A' for Active; 'I' for Inactive)
REMARK    1  A    between atoms: C_3  and  O_8 
REMARK    2  A    between atoms: C_6  and  O_7 
REMARK    3  A    between atoms: O_8  and  C_9 
REMARK    4  A    between atoms: C_10  and  O_19 
REMARK    5  A    between atoms: C_11  and  O_18 
REMARK    6  A    between atoms: C_12  and  O_17 
REMARK    7  A    between atoms: C_13  and  C_15 
REMARK    8  A    between atoms: C_15  and  O_16 
ROOT
HETATM    1  C   UNL     1      -3.639  -1.422  -0.317  1.00  0.00     0.298 C 
HETATM    2  C   UNL     1      -3.867  -2.281   0.942  1.00  0.00     0.205 C 
HETATM    3  C   UNL     1      -3.842  -3.747   0.461  1.00  0.00     0.183 C 
HETATM    4  C   UNL     1      -4.861  -4.020  -0.683  1.00  0.00     0.180 C 
HETATM    5  C   UNL     1      -4.732  -2.941  -1.770  1.00  0.00     0.179 C 
HETATM    6  O   UNL     1      -4.783  -1.635  -1.166  1.00  0.00    -0.348 OA
ENDROOT
BRANCH   1   7
HETATM    7  O   UNL     1      -3.473  -0.030  -0.046  1.00  0.00    -0.318 OA
BRANCH   7   8
HETATM    8  C   UNL     1      -3.177   0.730  -1.161  1.00  0.00     0.072 A 
HETATM    9  C   UNL     1      -3.274   2.112  -0.999  1.00  0.00     0.039 A 
HETATM   10  C   UNL     1      -3.081   2.963  -2.096  1.00  0.00     0.039 A 
HETATM   11  C   UNL     1      -2.783   2.432  -3.345  1.00  0.00     0.065 A 
HETATM   12  C   UNL     1      -2.633   1.065  -3.514  1.00  0.00     0.039 A 
HETATM   13  C   UNL     1      -2.817   0.221  -2.419  1.00  0.00     0.039 A 
BRANCH  11  14
HETATM   14  O   UNL     1      -2.651   3.284  -4.399  1.00  0.00    -0.361 OA
HETATM   15  H   UNL     1      -2.544   2.758  -5.212  1.00  0.00     0.217 HD
ENDBRANCH  11  14
ENDBRANCH   7   8
ENDBRANCH   1   7
BRANCH   2  16
HETATM   16  O   UNL     1      -5.141  -2.014   1.562  1.00  0.00    -0.388 OA
HETATM   17  H   UNL     1      -5.613  -1.384   0.984  1.00  0.00     0.210 HD
ENDBRANCH   2  16
BRANCH   3  18
HETATM   18  O   UNL     1      -4.054  -4.641   1.546  1.00  0.00    -0.390 OA
HETATM   19  H   UNL     1      -4.971  -4.481   1.847  1.00  0.00     0.210 HD
ENDBRANCH   3  18
BRANCH   5  20
HETATM   20  C   UNL     1      -5.839  -2.989  -2.826  1.00  0.00     0.198 C 
BRANCH  20  21
HETATM   21  O   UNL     1      -5.641  -1.923  -3.759  1.00  0.00    -0.398 OA
HETATM   22  H   UNL     1      -5.667  -1.099  -3.234  1.00  0.00     0.209 HD
ENDBRANCH  20  21
ENDBRANCH   5  20
BRANCH   4  23
HETATM   23  O   UNL     1      -6.196  -4.074  -0.159  1.00  0.00    -0.390 OA
HETATM   24  H   UNL     1      -6.515  -3.163  -0.030  1.00  0.00     0.210 HD
ENDBRANCH   4  23
TORSDOF 8
