REMARK  5 active torsions:
REMARK  status: ('A' for Active; 'I' for Inactive)
REMARK    1  A    between atoms: C_2  and  C_3 
REMARK    2  A    between atoms: C_2  and  C_5 
REMARK    3  A    between atoms: C_2  and  N_7 
REMARK    4  A    between atoms: C_3  and  O_4 
REMARK    5  A    between atoms: C_5  and  O_6 
ROOT
HETATM    1  C   UNL     1       0.994  -0.084   0.046  1.00  0.00     0.053 C 
HETATM    2  C   UNL     1       2.533  -0.051   0.055  1.00  0.00     0.193 C 
ENDROOT
BRANCH   2   3
HETATM    3  C   UNL     1       3.043   1.348  -0.368  1.00  0.00     0.207 C 
BRANCH   3   4
HETATM    4  O   UNL     1       2.595   1.677  -1.686  1.00  0.00    -0.398 OA
HETATM    5  H   UNL     1       3.058   1.064  -2.273  1.00  0.00     0.209 HD
ENDBRANCH   3   4
ENDBRANCH   2   3
BRANCH   2   6
HETATM    6  C   UNL     1       3.059  -0.393   1.476  1.00  0.00     0.207 C 
BRANCH   6   7
HETATM    7  O   UNL     1       4.480  -0.387   1.560  1.00  0.00    -0.398 OA
HETATM    8  H   UNL     1       4.794  -1.174   1.069  1.00  0.00     0.209 HD
ENDBRANCH   6   7
ENDBRANCH   2   6
BRANCH   2   9
HETATM    9  N   UNL     1       3.017  -1.067  -0.920  1.00  0.00     0.091 N 
HETATM   10  H   UNL     1       2.505  -0.935  -1.799  1.00  0.00     0.314 HD
HETATM   11  H   UNL     1       2.743  -1.990  -0.601  1.00  0.00     0.314 HD
ENDBRANCH   2   9
TORSDOF 5
