REMARK  4 active torsions:
REMARK  status: ('A' for Active; 'I' for Inactive)
REMARK    1  A    between atoms: C_2  and  N_3 
REMARK    2  A    between atoms: C_2  and  P_4 
REMARK    3  A    between atoms: P_4  and  O_5 
REMARK    4  A    between atoms: P_4  and  O_7 
ROOT
HETATM    1  C   UNL     1       1.016   0.038  -0.141  1.00  0.00     0.052 C 
HETATM    2  C   UNL     1       2.518   0.003   0.080  1.00  0.00     0.295 C 
ENDROOT
BRANCH   2   3
HETATM    3  N   UNL     1       3.269   0.721  -0.966  1.00  0.00     0.091 N 
HETATM    4  H   UNL     1       2.875   1.662  -1.054  1.00  0.00     0.313 HD
HETATM    5  H   UNL     1       3.063   0.275  -1.865  1.00  0.00     0.313 HD
ENDBRANCH   2   3
BRANCH   2   6
HETATM    6  P   UNL     1       3.063   0.932   1.601  1.00  0.00     0.197 P 
BRANCH   6   7
HETATM    7  O   UNL     1       2.660  -0.035   2.616  1.00  0.00    -0.348 OA
ATOM      8  HO  UNL     1       2.938   0.439   3.391  1.00  0.00     0.217 HD
ENDBRANCH   6   7
BRANCH   6   9
HETATM    9  O   UNL     1       4.639   0.550   1.564  1.00  0.00    -0.348 OA
HETATM   10  H   UNL     1       4.874   0.459   0.614  1.00  0.00     0.217 HD
ENDBRANCH   6   9
ENDBRANCH   2   6
TORSDOF 4
