REMARK  1 active torsions:
REMARK  status: ('A' for Active; 'I' for Inactive)
REMARK    1  A    between atoms: C_1  and  O_3 
ROOT
HETATM    1  H   UNL     1       2.058   0.294  -0.517  1.00  0.00     0.271 HD
HETATM    2  H   UNL     1       1.087   1.390   0.147  1.00  0.00     0.271 HD
HETATM    3  H   UNL     1       0.500   0.303  -0.910  1.00  0.00     0.271 HD
HETATM    4  H   UNL     1       1.470   1.595  -1.525  1.00  0.00     0.271 HD
HETATM    5  N   UNL     2       1.299   0.964  -0.755  1.00  0.00    -0.084 N 
ENDROOT
TORSDOF 1
