REMARK  8 active torsions:
REMARK  status: ('A' for Active; 'I' for Inactive)
REMARK    1  A    between atoms: C_3  and  O_8 
REMARK    2  A    between atoms: C_6  and  O_7 
REMARK    3  A    between atoms: O_8  and  C_9 
REMARK    4  A    between atoms: C_10  and  O_19 
REMARK    5  A    between atoms: C_11  and  O_18 
REMARK    6  A    between atoms: C_12  and  O_17 
REMARK    7  A    between atoms: C_13  and  C_15 
REMARK    8  A    between atoms: C_15  and  O_16 
ROOT
HETATM    1  C   UNL     1      -3.656  -1.416  -0.328  1.00  0.00     0.298 C 
HETATM    2  C   UNL     1      -3.886  -2.272   0.937  1.00  0.00     0.205 C 
HETATM    3  C   UNL     1      -3.848  -3.739   0.467  1.00  0.00     0.183 C 
HETATM    4  C   UNL     1      -4.860  -4.024  -0.673  1.00  0.00     0.180 C 
HETATM    5  C   UNL     1      -4.737  -2.954  -1.773  1.00  0.00     0.179 C 
HETATM    6  O   UNL     1      -4.796  -1.642  -1.179  1.00  0.00    -0.348 OA
ENDROOT
BRANCH   1   7
HETATM    7  O   UNL     1      -3.506  -0.017  -0.065  1.00  0.00    -0.318 OA
BRANCH   7   8
HETATM    8  C   UNL     1      -3.215   0.741  -1.182  1.00  0.00     0.072 A 
HETATM    9  C   UNL     1      -3.306   2.125  -1.022  1.00  0.00     0.039 A 
HETATM   10  C   UNL     1      -3.119   2.976  -2.120  1.00  0.00     0.039 A 
HETATM   11  C   UNL     1      -2.837   2.443  -3.372  1.00  0.00     0.065 A 
HETATM   12  C   UNL     1      -2.690   1.076  -3.540  1.00  0.00     0.039 A 
HETATM   13  C   UNL     1      -2.870   0.231  -2.443  1.00  0.00     0.039 A 
BRANCH  11  14
HETATM   14  O   UNL     1      -2.708   3.297  -4.425  1.00  0.00    -0.361 OA
HETATM   15  H   UNL     1      -2.609   2.766  -5.240  1.00  0.00     0.217 HD
ENDBRANCH  11  14
ENDBRANCH   7   8
ENDBRANCH   1   7
BRANCH   2  16
HETATM   16  O   UNL     1      -5.168  -2.004   1.544  1.00  0.00    -0.388 OA
HETATM   17  H   UNL     1      -5.613  -1.332   0.994  1.00  0.00     0.210 HD
ENDBRANCH   2  16
BRANCH   3  18
HETATM   18  O   UNL     1      -4.065  -4.625   1.561  1.00  0.00    -0.390 OA
HETATM   19  H   UNL     1      -4.975  -4.451   1.857  1.00  0.00     0.210 HD
ENDBRANCH   3  18
BRANCH   5  20
HETATM   20  C   UNL     1      -5.844  -3.009  -2.823  1.00  0.00     0.198 C 
BRANCH  20  21
HETATM   21  O   UNL     1      -5.648  -1.943  -3.761  1.00  0.00    -0.398 OA
HETATM   22  H   UNL     1      -5.677  -1.121  -3.233  1.00  0.00     0.209 HD
ENDBRANCH  20  21
ENDBRANCH   5  20
BRANCH   4  23
HETATM   23  O   UNL     1      -6.198  -4.075  -0.160  1.00  0.00    -0.390 OA
HETATM   24  H   UNL     1      -6.491  -3.163   0.021  1.00  0.00     0.210 HD
ENDBRANCH   4  23
TORSDOF 8
