REMARK  22 active torsions:
REMARK  status: ('A' for Active; 'I' for Inactive)
REMARK    1  A    between atoms: C_2  and  C_4 
REMARK    2  A    between atoms: C_4  and  C_5 
REMARK    3  A    between atoms: C_5  and  C_6 
REMARK    4  A    between atoms: C_6  and  C_7 
REMARK    5  A    between atoms: C_7  and  C_8 
REMARK    6  A    between atoms: C_8  and  C_9 
REMARK    7  A    between atoms: C_9  and  C_10 
REMARK    8  A    between atoms: C_10  and  C_11 
REMARK    9  A    between atoms: C_11  and  C_12 
REMARK   10  A    between atoms: C_12  and  C_13 
REMARK   11  A    between atoms: C_13  and  C_14 
REMARK   12  A    between atoms: C_14  and  C_15 
REMARK   13  A    between atoms: C_15  and  C_16 
REMARK   14  A    between atoms: C_16  and  C_17 
REMARK   15  A    between atoms: C_17  and  C_18 
REMARK   16  A    between atoms: C_18  and  O_20 
REMARK   17  A    between atoms: O_20  and  C_21 
REMARK   18  A    between atoms: C_21  and  C_22 
REMARK   19  A    between atoms: C_22  and  C_23 
REMARK   20  A    between atoms: C_22  and  O_31 
REMARK   21  A    between atoms: C_24  and  O_30 
REMARK   22  A    between atoms: C_25  and  O_29 
ROOT
HETATM    1  C   UNL     1      16.802  -7.356   6.991  1.00  0.00     0.111 C 
ENDROOT
BRANCH   1   2
HETATM    2  C   UNL     1      15.279  -7.307   6.906  1.00  0.00     0.010 C 
BRANCH   2   3
HETATM    3  C   UNL     1      14.779  -6.283   5.905  1.00  0.00     0.000 C 
BRANCH   3   4
HETATM    4  C   UNL     1      13.255  -6.286   5.905  1.00  0.00     0.000 C 
BRANCH   4   5
HETATM    5  C   UNL     1      12.725  -5.259   4.921  1.00  0.00     0.000 C 
BRANCH   5   6
HETATM    6  C   UNL     1      11.206  -5.263   4.923  1.00  0.00     0.000 C 
BRANCH   6   7
HETATM    7  C   UNL     1      10.687  -4.230   3.939  1.00  0.00     0.000 C 
BRANCH   7   8
HETATM    8  C   UNL     1       9.170  -4.229   3.935  1.00  0.00     0.000 C 
BRANCH   8   9
HETATM    9  C   UNL     1       8.656  -3.195   2.949  1.00  0.00     0.000 C 
BRANCH   9  10
HETATM   10  C   UNL     1       7.139  -3.197   2.948  1.00  0.00     0.000 C 
BRANCH  10  11
HETATM   11  C   UNL     1       6.620  -2.170   1.962  1.00  0.00     0.000 C 
BRANCH  11  12
HETATM   12  C   UNL     1       5.099  -2.174   1.958  1.00  0.00     0.000 C 
BRANCH  12  13
HETATM   13  C   UNL     1       4.597  -1.131   0.976  1.00  0.00     0.000 C 
BRANCH  13  14
HETATM   14  C   UNL     1       3.075  -1.085   0.952  1.00  0.00     0.004 C 
BRANCH  14  15
HETATM   15  C   UNL     1       2.543  -0.041  -0.041  1.00  0.00    -0.023 C 
HETATM   16  C   UNL     1       1.016  -0.066  -0.044  1.00  0.00     0.009 C 
HETATM   17  C   UNL     1       3.041   1.369   0.286  1.00  0.00     0.009 C 
ENDBRANCH  14  15
ENDBRANCH  13  14
ENDBRANCH  12  13
ENDBRANCH  11  12
ENDBRANCH  10  11
ENDBRANCH   9  10
ENDBRANCH   8   9
ENDBRANCH   7   8
ENDBRANCH   6   7
ENDBRANCH   5   6
ENDBRANCH   4   5
ENDBRANCH   3   4
ENDBRANCH   2   3
ENDBRANCH   1   2
BRANCH   1  18
HETATM   18  C   UNL     1      17.243  -8.448   7.935  1.00  0.00     0.258 C 
HETATM   19  O   UNL     1      18.249  -9.127   7.778  1.00  0.00    -0.265 OA
BRANCH  18  20
HETATM   20  O   UNL     1      16.350  -8.637   8.947  1.00  0.00    -0.319 OA
BRANCH  20  21
HETATM   21  C   UNL     1      15.900  -9.994   9.057  1.00  0.00     0.213 C 
BRANCH  21  22
HETATM   22  C   UNL     1      16.197 -10.605  10.433  1.00  0.00     0.178 C 
BRANCH  22  23
HETATM   23  C   UNL     1      15.580 -12.020  10.492  1.00  0.00     0.222 C 
HETATM   24  C   UNL     1      15.811 -12.791  11.741  1.00  0.00     0.114 C 
HETATM   25  C   UNL     1      16.684 -13.769  11.539  1.00  0.00     0.173 C 
HETATM   26  C   UNL     1      17.094 -13.670  10.142  1.00  0.00     0.320 C 
HETATM   27  O   UNL     1      18.030 -14.243   9.636  1.00  0.00    -0.257 OA
HETATM   28  O   UNL     1      16.250 -12.816   9.502  1.00  0.00    -0.301 OA
BRANCH  24  29
HETATM   29  O   UNL     1      15.131 -12.571  12.909  1.00  0.00    -0.359 OA
HETATM   30  H   UNL     1      14.652 -11.732  12.791  1.00  0.00     0.217 HD
ENDBRANCH  24  29
BRANCH  25  31
HETATM   31  O   UNL     1      17.113 -14.712  12.413  1.00  0.00    -0.353 OA
HETATM   32  H   UNL     1      16.622 -14.526  13.234  1.00  0.00     0.218 HD
ENDBRANCH  25  31
ENDBRANCH  22  23
BRANCH  22  33
HETATM   33  O   UNL     1      17.613 -10.685  10.640  1.00  0.00    -0.390 OA
HETATM   34  H   UNL     1      17.951 -11.127   9.832  1.00  0.00     0.210 HD
ENDBRANCH  22  33
ENDBRANCH  21  22
ENDBRANCH  20  21
ENDBRANCH  18  20
ENDBRANCH   1  18
TORSDOF 22
