REMARK  21 active torsions:
REMARK  status: ('A' for Active; 'I' for Inactive)
REMARK    1  A    between atoms: C_2  and  C_3 
REMARK    2  A    between atoms: C_3  and  C_4 
REMARK    3  A    between atoms: C_4  and  C_5 
REMARK    4  A    between atoms: C_5  and  C_6 
REMARK    5  A    between atoms: C_6  and  C_7 
REMARK    6  A    between atoms: C_7  and  C_8 
REMARK    7  A    between atoms: C_8  and  C_9 
REMARK    8  A    between atoms: C_9  and  C_10 
REMARK    9  A    between atoms: C_10  and  C_11 
REMARK   10  A    between atoms: C_11  and  C_12 
REMARK   11  A    between atoms: C_12  and  C_13 
REMARK   12  A    between atoms: C_13  and  C_14 
REMARK   13  A    between atoms: C_14  and  C_15 
REMARK   14  A    between atoms: C_15  and  C_16 
REMARK   15  A    between atoms: C_16  and  O_18 
REMARK   16  A    between atoms: O_18  and  C_19 
REMARK   17  A    between atoms: C_19  and  C_20 
REMARK   18  A    between atoms: C_20  and  C_21 
REMARK   19  A    between atoms: C_20  and  O_29 
REMARK   20  A    between atoms: C_22  and  O_28 
REMARK   21  A    between atoms: C_23  and  O_27 
ROOT
HETATM    1  C   UNL     1      16.874   0.735   9.893  1.00  0.00     0.258 C 
HETATM    2  O   UNL     1      17.633   0.833  10.851  1.00  0.00    -0.265 OA
ENDROOT
BRANCH   1   3
HETATM    3  C   UNL     1      15.364   0.750   9.979  1.00  0.00     0.111 C 
BRANCH   3   4
HETATM    4  C   UNL     1      14.767   0.655   8.578  1.00  0.00     0.010 C 
BRANCH   4   5
HETATM    5  C   UNL     1      13.253   0.656   8.574  1.00  0.00     0.000 C 
BRANCH   5   6
HETATM    6  C   UNL     1      12.742   0.555   7.142  1.00  0.00     0.000 C 
BRANCH   6   7
HETATM    7  C   UNL     1      11.222   0.553   7.122  1.00  0.00     0.000 C 
BRANCH   7   8
HETATM    8  C   UNL     1      10.710   0.453   5.694  1.00  0.00     0.000 C 
BRANCH   8   9
HETATM    9  C   UNL     1       9.191   0.451   5.685  1.00  0.00     0.000 C 
BRANCH   9  10
HETATM   10  C   UNL     1       8.679   0.349   4.260  1.00  0.00     0.000 C 
BRANCH  10  11
HETATM   11  C   UNL     1       7.160   0.348   4.254  1.00  0.00     0.000 C 
BRANCH  11  12
HETATM   12  C   UNL     1       6.648   0.248   2.828  1.00  0.00     0.000 C 
BRANCH  12  13
HETATM   13  C   UNL     1       5.130   0.247   2.819  1.00  0.00     0.000 C 
BRANCH  13  14
HETATM   14  C   UNL     1       4.616   0.147   1.392  1.00  0.00     0.000 C 
BRANCH  14  15
HETATM   15  C   UNL     1       3.095   0.146   1.382  1.00  0.00    -0.000 C 
BRANCH  15  16
HETATM   16  C   UNL     1       2.570   0.045  -0.044  1.00  0.00    -0.005 C 
HETATM   17  C   UNL     1       1.054   0.044  -0.052  1.00  0.00     0.005 C 
ENDBRANCH  15  16
ENDBRANCH  14  15
ENDBRANCH  13  14
ENDBRANCH  12  13
ENDBRANCH  11  12
ENDBRANCH  10  11
ENDBRANCH   9  10
ENDBRANCH   8   9
ENDBRANCH   7   8
ENDBRANCH   6   7
ENDBRANCH   5   6
ENDBRANCH   4   5
ENDBRANCH   3   4
ENDBRANCH   1   3
BRANCH   1  18
HETATM   18  O   UNL     1      17.306   0.689   8.596  1.00  0.00    -0.319 OA
BRANCH  18  19
HETATM   19  C   UNL     1      18.133   1.791   8.179  1.00  0.00     0.213 C 
BRANCH  19  20
HETATM   20  C   UNL     1      19.515   1.303   7.713  1.00  0.00     0.178 C 
BRANCH  20  21
HETATM   21  C   UNL     1      20.429   2.451   7.213  1.00  0.00     0.222 C 
HETATM   22  C   UNL     1      21.761   1.957   6.784  1.00  0.00     0.114 C 
HETATM   23  C   UNL     1      22.729   2.409   7.613  1.00  0.00     0.173 C 
HETATM   24  C   UNL     1      22.057   3.283   8.607  1.00  0.00     0.320 C 
HETATM   25  O   UNL     1      22.589   3.842   9.549  1.00  0.00    -0.257 OA
HETATM   26  O   UNL     1      20.738   3.397   8.251  1.00  0.00    -0.301 OA
BRANCH  22  27
HETATM   27  O   UNL     1      21.933   1.172   5.668  1.00  0.00    -0.359 OA
HETATM   28  H   UNL     1      21.032   0.967   5.330  1.00  0.00     0.217 HD
ENDBRANCH  22  27
BRANCH  23  29
HETATM   29  O   UNL     1      24.069   2.194   7.555  1.00  0.00    -0.353 OA
HETATM   30  H   UNL     1      24.245   1.663   6.759  1.00  0.00     0.218 HD
ENDBRANCH  23  29
ENDBRANCH  20  21
BRANCH  20  31
HETATM   31  O   UNL     1      20.195   0.558   8.728  1.00  0.00    -0.390 OA
HETATM   32  H   UNL     1      20.431   1.166   9.453  1.00  0.00     0.210 HD
ENDBRANCH  20  31
ENDBRANCH  19  20
ENDBRANCH  18  19
ENDBRANCH   1  18
TORSDOF 21
