REMARK  6 active torsions:
REMARK  status: ('A' for Active; 'I' for Inactive)
REMARK    1  A    between atoms: C_1  and  C_2 
REMARK    2  A    between atoms: C_1  and  O_12 
REMARK    3  A    between atoms: C_2  and  C_3 
REMARK    4  A    between atoms: C_2  and  O_11 
REMARK    5  A    between atoms: C_4  and  O_10 
REMARK    6  A    between atoms: C_5  and  O_9 
ROOT
HETATM    1  C   UNL     1       1.033   0.451   2.560  1.00  0.00     0.222 A 
HETATM    2  C   UNL     1       0.512   1.838   2.511  1.00  0.00     0.114 A 
HETATM    3  C   UNL     1       1.489   2.716   2.315  1.00  0.00     0.173 A 
HETATM    4  C   UNL     1       2.743   1.943   2.260  1.00  0.00     0.320 A 
HETATM    5  O   UNL     1       3.860   2.385   2.072  1.00  0.00    -0.257 OA
HETATM    6  O   UNL     1       2.449   0.611   2.416  1.00  0.00    -0.301 OA
ENDROOT
BRANCH   1   7
HETATM    7  C   UNL     1       0.463  -0.450   1.456  1.00  0.00     0.177 C 
BRANCH   7   8
HETATM    8  C   UNL     1       0.849  -0.026   0.031  1.00  0.00     0.198 C 
BRANCH   8   9
HETATM    9  O   UNL     1       0.232  -0.929  -0.891  1.00  0.00    -0.398 OA
HETATM   10  H   UNL     1       0.703  -1.780  -0.827  1.00  0.00     0.209 HD
ENDBRANCH   8   9
ENDBRANCH   7   8
BRANCH   7  11
HETATM   11  O   UNL     1      -0.976  -0.473   1.575  1.00  0.00    -0.390 OA
HETATM   12  H   UNL     1      -1.315  -0.557   0.658  1.00  0.00     0.210 HD
ENDBRANCH   7  11
ENDBRANCH   1   7
BRANCH   2  13
HETATM   13  O   UNL     1      -0.822   2.141   2.599  1.00  0.00    -0.359 OA
HETATM   14  H   UNL     1      -1.315   1.290   2.614  1.00  0.00     0.217 HD
ENDBRANCH   2  13
BRANCH   3  15
HETATM   15  O   UNL     1       1.357   4.061   2.142  1.00  0.00    -0.353 OA
HETATM   16  H   UNL     1       0.399   4.244   2.188  1.00  0.00     0.218 HD
ENDBRANCH   3  15
TORSDOF 6
