REMARK  5 active torsions:
REMARK  status: ('A' for Active; 'I' for Inactive)
REMARK    1  A    between atoms: N_2  and  C_5 
REMARK    2  A    between atoms: C_13  and  O_26 
REMARK    3  A    between atoms: C_14  and  N_15 
REMARK    4  A    between atoms: N_17  and  C_19 
REMARK    5  A    between atoms: C_22  and  N_25 
ROOT
HETATM    1 CL   UNL     2      -0.177  -1.552   2.819  1.00  0.00     0.000 Cl
ENDROOT
TORSDOF 5
