REMARK  21 active torsions:
REMARK  status: ('A' for Active; 'I' for Inactive)
REMARK    1  A    between atoms: C_2  and  C_3 
REMARK    2  A    between atoms: C_3  and  C_4 
REMARK    3  A    between atoms: C_4  and  C_5 
REMARK    4  A    between atoms: C_5  and  C_6 
REMARK    5  A    between atoms: C_6  and  C_7 
REMARK    6  A    between atoms: C_7  and  C_8 
REMARK    7  A    between atoms: C_8  and  C_9 
REMARK    8  A    between atoms: C_9  and  C_10 
REMARK    9  A    between atoms: C_10  and  C_11 
REMARK   10  A    between atoms: C_11  and  C_12 
REMARK   11  A    between atoms: C_12  and  C_13 
REMARK   12  A    between atoms: C_13  and  C_14 
REMARK   13  A    between atoms: C_14  and  C_15 
REMARK   14  A    between atoms: C_15  and  C_16 
REMARK   15  A    between atoms: C_16  and  C_17 
REMARK   16  A    between atoms: C_17  and  C_18 
REMARK   17  A    between atoms: C_18  and  C_19 
REMARK   18  A    between atoms: C_19  and  C_20 
REMARK   19  A    between atoms: C_20  and  C_21 
REMARK   20  A    between atoms: C_21  and  C_22 
REMARK   21  A    between atoms: C_22  and  O_24 
ROOT
HETATM    1  C   UNL     1      13.112  -3.514  -7.843  1.00  0.00     0.000 C 
ENDROOT
BRANCH   1   2
HETATM    2  C   UNL     1      12.602  -2.917  -6.546  1.00  0.00     0.000 C 
BRANCH   2   3
HETATM    3  C   UNL     1      11.085  -2.915  -6.541  1.00  0.00     0.000 C 
BRANCH   3   4
HETATM    4  C   UNL     1      10.575  -2.318  -5.244  1.00  0.00     0.000 C 
BRANCH   4   5
HETATM    5  C   UNL     1       9.059  -2.317  -5.238  1.00  0.00     0.000 C 
BRANCH   5   6
HETATM    6  C   UNL     1       8.548  -1.719  -3.942  1.00  0.00     0.000 C 
BRANCH   6   7
HETATM    7  C   UNL     1       7.032  -1.720  -3.935  1.00  0.00     0.000 C 
BRANCH   7   8
HETATM    8  C   UNL     1       6.521  -1.123  -2.638  1.00  0.00     0.000 C 
BRANCH   8   9
HETATM    9  C   UNL     1       5.004  -1.124  -2.630  1.00  0.00     0.000 C 
BRANCH   9  10
HETATM   10  C   UNL     1       4.492  -0.526  -1.332  1.00  0.00     0.000 C 
BRANCH  10  11
HETATM   11  C   UNL     1       2.974  -0.527  -1.322  1.00  0.00    -0.000 C 
BRANCH  11  12
HETATM   12  C   UNL     1       2.452   0.071  -0.024  1.00  0.00    -0.005 C 
HETATM   13  C   UNL     1       0.937   0.070  -0.021  1.00  0.00     0.005 C 
ENDBRANCH  11  12
ENDBRANCH  10  11
ENDBRANCH   9  10
ENDBRANCH   8   9
ENDBRANCH   7   8
ENDBRANCH   6   7
ENDBRANCH   5   6
ENDBRANCH   4   5
ENDBRANCH   3   4
ENDBRANCH   2   3
ENDBRANCH   1   2
BRANCH   1  14
HETATM   14  C   UNL     1      14.629  -3.516  -7.848  1.00  0.00     0.000 C 
BRANCH  14  15
HETATM   15  C   UNL     1      15.140  -4.113  -9.145  1.00  0.00     0.000 C 
BRANCH  15  16
HETATM   16  C   UNL     1      16.658  -4.116  -9.151  1.00  0.00     0.000 C 
BRANCH  16  17
HETATM   17  C   UNL     1      17.170  -4.714 -10.450  1.00  0.00     0.000 C 
BRANCH  17  18
HETATM   18  C   UNL     1      18.690  -4.719 -10.463  1.00  0.00     0.000 C 
BRANCH  18  19
HETATM   19  C   UNL     1      19.203  -5.321 -11.766  1.00  0.00     0.001 C 
BRANCH  19  20
HETATM   20  C   UNL     1      20.724  -5.330 -11.780  1.00  0.00     0.010 C 
BRANCH  20  21
HETATM   21  C   UNL     1      21.293  -5.925 -13.073  1.00  0.00     0.110 C 
BRANCH  21  22
HETATM   22  C   UNL     1      22.800  -5.906 -13.022  1.00  0.00     0.139 C 
HETATM   23  O   UNL     1      23.456  -5.474 -12.076  1.00  0.00    -0.650 OA
BRANCH  22  24
HETATM   24  O   UNL     1      23.410  -6.407 -14.110  1.00  0.00    -0.776 OA
HETATM   25  H   UNL     1      22.824  -6.732 -14.820  1.00  0.00     0.167 HD
ENDBRANCH  22  24
ENDBRANCH  21  22
ENDBRANCH  20  21
ENDBRANCH  19  20
ENDBRANCH  18  19
ENDBRANCH  17  18
ENDBRANCH  16  17
ENDBRANCH  15  16
ENDBRANCH  14  15
ENDBRANCH   1  14
TORSDOF 21
