REMARK  2 active torsions:
REMARK  status: ('A' for Active; 'I' for Inactive)
REMARK    1  A    between atoms: C_4  and  C_7 
REMARK    2  A    between atoms: C_7  and  O_9 
ROOT
HETATM    1  C   UNL     1       1.355  -0.217   0.005  1.00  0.00     0.000 A 
HETATM    2  C   UNL     1       0.483  -1.307   0.002  1.00  0.00     0.001 A 
HETATM    3  C   UNL     1      -0.899  -1.102  -0.021  1.00  0.00     0.018 A 
HETATM    4  C   UNL     1      -1.410   0.202  -0.054  1.00  0.00     0.037 A 
HETATM    5  C   UNL     1      -0.531   1.292  -0.039  1.00  0.00     0.018 A 
HETATM    6  C   UNL     1       0.848   1.082  -0.011  1.00  0.00     0.001 A 
ENDROOT
BRANCH   4   7
HETATM    7  C   UNL     1      -2.869   0.488  -0.051  1.00  0.00     0.176 C 
HETATM    8  O   UNL     1      -3.343   1.499   0.436  1.00  0.00    -0.646 OA
BRANCH   7   9
HETATM    9  O   UNL     1      -3.618  -0.448  -0.672  1.00  0.00    -0.773 OA
HETATM   10  H   UNL     1      -3.116  -1.109  -1.181  1.00  0.00     0.167 HD
ENDBRANCH   7   9
ENDBRANCH   4   7
TORSDOF 2
