REMARK  6 active torsions:
REMARK  status: ('A' for Active; 'I' for Inactive)
REMARK    1  A    between atoms: O_2  and  C_3 
REMARK    2  A    between atoms: C_4  and  S_18 
REMARK    3  A    between atoms: C_6  and  C_10 
REMARK    4  A    between atoms: C_7  and  O_9 
REMARK    5  A    between atoms: C_10  and  C_12 
REMARK    6  A    between atoms: S_18  and  O_21 
ROOT
HETATM    1  C   UNL     1       3.064   1.206  -0.132  1.00  0.00     0.094 A 
HETATM    2  C   UNL     1       2.425   2.451  -0.098  1.00  0.00     0.106 A 
HETATM    3  C   UNL     1       3.197   3.637  -0.115  1.00  0.00     0.046 A 
HETATM    4  C   UNL     1       4.592   3.599  -0.198  1.00  0.00     0.050 A 
HETATM    5  C   UNL     1       5.229   2.364  -0.193  1.00  0.00     0.082 A 
HETATM    6  C   UNL     1       4.475   1.194  -0.169  1.00  0.00     0.075 A 
ENDROOT
BRANCH   4   7
HETATM    7  C   UNL     1       5.395   4.845  -0.266  1.00  0.00     0.195 C 
HETATM    8  O   UNL     1       6.521   4.836   0.230  1.00  0.00    -0.287 OA
BRANCH   7   9
HETATM    9  C   UNL     1       4.901   6.064  -0.951  1.00  0.00     0.015 A 
HETATM   10  C   UNL     1       4.072   5.988  -2.078  1.00  0.00     0.015 A 
HETATM   11  C   UNL     1       3.638   7.155  -2.707  1.00  0.00     0.001 A 
HETATM   12  C   UNL     1       4.049   8.399  -2.224  1.00  0.00     0.000 A 
HETATM   13  C   UNL     1       4.895   8.478  -1.118  1.00  0.00     0.001 A 
HETATM   14  C   UNL     1       5.324   7.312  -0.482  1.00  0.00     0.015 A 
ENDBRANCH   7   9
ENDBRANCH   4   7
BRANCH   5  15
HETATM   15  O   UNL     1       6.589   2.227  -0.219  1.00  0.00    -0.360 OA
HETATM   16  H   UNL     1       6.986   3.109  -0.039  1.00  0.00     0.217 HD
ENDBRANCH   5  15
BRANCH   2  17
HETATM   17  S   UNL     1       0.671   2.693  -0.021  1.00  0.00     0.132 S 
HETATM   18  O   UNL     1       0.080   2.141  -1.220  1.00  0.00    -0.597 OA
HETATM   19  O   UNL     1       0.226   2.346   1.306  1.00  0.00    -0.597 OA
BRANCH  17  20
HETATM   20  O   UNL     1       0.441   4.283  -0.194  1.00  0.00    -0.292 OA
HETATM   21  H   UNL     1      -0.189   4.407  -0.937  1.00  0.00     0.232 HD
ENDBRANCH  17  20
ENDBRANCH   2  17
BRANCH   1  22
HETATM   22  O   UNL     1       2.609  -0.076  -0.119  1.00  0.00    -0.354 OA
HETATM   23  C   UNL     1       1.241  -0.432  -0.140  1.00  0.00     0.210 C 
ENDBRANCH   1  22
TORSDOF 6
