REMARK  18 active torsions:
REMARK  status: ('A' for Active; 'I' for Inactive)
REMARK    1  A    between atoms: C_1  and  C_2 
REMARK    2  A    between atoms: C_1  and  O_34 
REMARK    3  A    between atoms: C_3  and  O_33 
REMARK    4  A    between atoms: C_4  and  O_32 
REMARK    5  A    between atoms: C_5  and  O_31 
REMARK    6  A    between atoms: C_6  and  O_8 
REMARK    7  A    between atoms: O_8  and  C_9 
REMARK    8  A    between atoms: C_10  and  C_29 
REMARK    9  A    between atoms: C_12  and  O_17 
REMARK   10  A    between atoms: C_13  and  O_16 
REMARK   11  A    between atoms: C_14  and  O_15 
REMARK   12  A    between atoms: O_17  and  C_18 
REMARK   13  A    between atoms: C_19  and  C_27 
REMARK   14  A    between atoms: C_21  and  O_26 
REMARK   15  A    between atoms: C_22  and  O_25 
REMARK   16  A    between atoms: C_23  and  O_24 
REMARK   17  A    between atoms: C_27  and  O_28 
REMARK   18  A    between atoms: C_29  and  O_30 
ROOT
HETATM    1  C   UNL     1      -0.171   4.537   1.422  1.00  0.00     0.187 C 
HETATM    2  C   UNL     1       0.845   5.452   0.693  1.00  0.00     0.180 C 
HETATM    3  O   UNL     1       1.940   4.708   0.144  1.00  0.00    -0.348 OA
HETATM    4  C   UNL     1       2.666   3.844   1.023  1.00  0.00     0.292 C 
HETATM    5  C   UNL     1       1.764   2.998   1.971  1.00  0.00     0.204 C 
HETATM    6  C   UNL     1       0.566   3.777   2.532  1.00  0.00     0.183 C 
ENDROOT
BRANCH   1   7
HETATM    7  O   UNL     1      -0.752   3.669   0.426  1.00  0.00    -0.348 OA
BRANCH   7   8
HETATM    8  C   UNL     1      -1.923   2.897   0.723  1.00  0.00     0.292 C 
HETATM    9  C   UNL     1      -3.081   3.670   1.413  1.00  0.00     0.204 C 
HETATM   10  C   UNL     1      -4.282   2.726   1.593  1.00  0.00     0.183 C 
HETATM   11  C   UNL     1      -3.859   1.457   2.356  1.00  0.00     0.180 C 
HETATM   12  C   UNL     1      -2.671   0.773   1.653  1.00  0.00     0.179 C 
HETATM   13  O   UNL     1      -1.576   1.694   1.420  1.00  0.00    -0.348 OA
BRANCH   9  14
HETATM   14  O   UNL     1      -2.757   4.173   2.728  1.00  0.00    -0.388 OA
HETATM   15  H   UNL     1      -2.016   3.623   3.079  1.00  0.00     0.210 HD
ENDBRANCH   9  14
BRANCH  10  16
HETATM   16  O   UNL     1      -5.319   3.411   2.309  1.00  0.00    -0.390 OA
HETATM   17  H   UNL     1      -4.886   4.100   2.852  1.00  0.00     0.210 HD
ENDBRANCH  10  16
BRANCH  11  18
HETATM   18  O   UNL     1      -3.427   1.769   3.695  1.00  0.00    -0.390 OA
HETATM   19  H   UNL     1      -3.667   2.696   3.881  1.00  0.00     0.210 HD
ENDBRANCH  11  18
BRANCH  12  20
HETATM   20  C   UNL     1      -3.066   0.012   0.379  1.00  0.00     0.198 C 
BRANCH  20  21
HETATM   21  O   UNL     1      -4.059  -0.972   0.639  1.00  0.00    -0.398 OA
HETATM   22  H   UNL     1      -3.626  -1.720   1.093  1.00  0.00     0.209 HD
ENDBRANCH  20  21
ENDBRANCH  12  20
ENDBRANCH   7   8
ENDBRANCH   1   7
BRANCH   2  23
HETATM   23  C   UNL     1       1.281   6.681   1.517  1.00  0.00     0.198 C 
BRANCH  23  24
HETATM   24  O   UNL     1       1.868   6.346   2.768  1.00  0.00    -0.398 OA
HETATM   25  H   UNL     1       1.327   6.739   3.479  1.00  0.00     0.209 HD
ENDBRANCH  23  24
ENDBRANCH   2  23
BRANCH   6  26
HETATM   26  O   UNL     1      -0.332   2.921   3.257  1.00  0.00    -0.390 OA
HETATM   27  H   UNL     1      -0.479   2.123   2.701  1.00  0.00     0.210 HD
ENDBRANCH   6  26
BRANCH   5  28
HETATM   28  O   UNL     1       2.510   2.352   3.005  1.00  0.00    -0.388 OA
HETATM   29  H   UNL     1       2.110   2.602   3.857  1.00  0.00     0.210 HD
ENDBRANCH   5  28
BRANCH   4  30
HETATM   30  O   UNL     1       3.800   4.501   1.645  1.00  0.00    -0.348 OA
BRANCH  30  31
HETATM   31  C   UNL     1       4.666   5.144   0.665  1.00  0.00     0.187 C 
HETATM   32  C   UNL     1       5.412   4.147  -0.251  1.00  0.00     0.180 C 
HETATM   33  O   UNL     1       6.606   3.595   0.324  1.00  0.00    -0.349 OA
HETATM   34  C   UNL     1       7.549   4.511   0.836  1.00  0.00     0.288 C 
HETATM   35  C   UNL     1       6.944   5.456   1.884  1.00  0.00     0.204 C 
HETATM   36  C   UNL     1       5.663   6.115   1.350  1.00  0.00     0.183 C 
BRANCH  32  37
HETATM   37  C   UNL     1       5.667   4.740  -1.649  1.00  0.00     0.198 C 
BRANCH  37  38
HETATM   38  O   UNL     1       6.349   3.789  -2.460  1.00  0.00    -0.398 OA
HETATM   39  H   UNL     1       7.099   3.470  -1.920  1.00  0.00     0.209 HD
ENDBRANCH  37  38
ENDBRANCH  32  37
BRANCH  34  40
HETATM   40  O   UNL     1       8.208   5.214  -0.212  1.00  0.00    -0.369 OA
HETATM   41  H   UNL     1       7.957   6.153  -0.160  1.00  0.00     0.212 HD
ENDBRANCH  34  40
BRANCH  35  42
HETATM   42  O   UNL     1       7.902   6.488   2.206  1.00  0.00    -0.388 OA
HETATM   43  H   UNL     1       8.793   6.180   1.963  1.00  0.00     0.210 HD
ENDBRANCH  35  42
BRANCH  36  44
HETATM   44  O   UNL     1       5.017   6.869   2.384  1.00  0.00    -0.390 OA
HETATM   45  H   UNL     1       4.531   6.225   2.934  1.00  0.00     0.210 HD
ENDBRANCH  36  44
ENDBRANCH  30  31
ENDBRANCH   4  30
TORSDOF 18
