REMARK  3 active torsions:
REMARK  status: ('A' for Active; 'I' for Inactive)
REMARK    1  A    between atoms: C_4  and  C_13 
REMARK    2  A    between atoms: C_5  and  O_12 
REMARK    3  A    between atoms: C_6  and  C_8 
ROOT
HETATM    1  C   UNL     1       2.963   0.054   0.060  1.00  0.00     0.048 C 
HETATM    2  C   UNL     1       1.463   0.016   0.006  1.00  0.00    -0.061 A 
HETATM    3  C   UNL     1       0.773  -1.198  -0.040  1.00  0.00     0.017 A 
HETATM    4  C   UNL     1      -0.636  -1.269  -0.063  1.00  0.00    -0.016 A 
HETATM    5  C   UNL     1      -1.328  -0.024  -0.051  1.00  0.00     0.079 A 
HETATM    6  C   UNL     1      -0.666   1.233  -0.063  1.00  0.00    -0.016 A 
HETATM    7  C   UNL     1       0.740   1.208  -0.002  1.00  0.00     0.017 A 
ENDROOT
BRANCH   4   8
HETATM    8  C   UNL     1      -1.322  -2.662  -0.093  1.00  0.00    -0.021 C 
HETATM    9  C   UNL     1      -0.321  -3.854  -0.072  1.00  0.00     0.019 C 
HETATM   10  C   UNL     1      -2.223  -2.872   1.146  1.00  0.00     0.019 C 
HETATM   11  C   UNL     1      -2.130  -2.847  -1.400  1.00  0.00     0.019 C 
ENDBRANCH   4   8
BRANCH   5  12
HETATM   12  O   UNL     1      -2.692   0.027   0.025  1.00  0.00    -0.360 OA
HETATM   13  H   UNL     1      -3.079  -0.832  -0.168  1.00  0.00     0.217 HD
ENDBRANCH   5  12
BRANCH   6  14
HETATM   14  C   UNL     1      -1.394   2.605  -0.083  1.00  0.00    -0.021 C 
HETATM   15  C   UNL     1      -1.639   3.042   1.375  1.00  0.00     0.019 C 
HETATM   16  C   UNL     1      -0.545   3.701  -0.784  1.00  0.00     0.019 C 
HETATM   17  C   UNL     1      -2.748   2.623  -0.834  1.00  0.00     0.019 C 
ENDBRANCH   6  14
TORSDOF 3
