REMARK  19 active torsions:
REMARK  status: ('A' for Active; 'I' for Inactive)
REMARK    1  A    between atoms: C_4  and  C_6 
REMARK    2  A    between atoms: C_6  and  C_7 
REMARK    3  A    between atoms: C_7  and  C_8 
REMARK    4  A    between atoms: C_8  and  C_9 
REMARK    5  A    between atoms: C_9  and  C_10 
REMARK       I    between atoms: C_10  and  N_12 
REMARK    6  A    between atoms: N_12  and  C_13 
REMARK    7  A    between atoms: C_13  and  C_14 
REMARK       I    between atoms: C_14  and  N_23 
REMARK    8  A    between atoms: N_23  and  CA_24 
REMARK    9  A    between atoms: CA_24  and  CB_25 
REMARK   10  A    between atoms: CA_24  and  C_32 
REMARK   11  A    between atoms: CB_25  and  CG_26 
REMARK       I    between atoms: C_32  and  N_36 
REMARK   12  A    between atoms: N_36  and  CA_37 
REMARK   13  A    between atoms: CA_37  and  CB_38 
REMARK   14  A    between atoms: CA_37  and  C_43 
REMARK   15  A    between atoms: CB_38  and  CG_39 
REMARK   16  A    between atoms: CG_39  and  CD_40 
REMARK   17  A    between atoms: CD_40  and  CE_41 
REMARK   18  A    between atoms: CE_41  and  NZ_42 
REMARK   19  A    between atoms: C_43  and  OXT_45 
ROOT
ATOM      1  CA  HIS A   1     -13.831  -1.992  -1.889  1.00  0.00     0.182 C 
ENDROOT
BRANCH   1   2
ATOM      2  N   HIS A   1     -12.497  -1.872  -2.531  1.00  0.00    -0.346 N 
HETATM    3  C   UNK A   0     -11.310  -2.236  -1.927  1.00  0.00     0.236 C 
HETATM    4  O   UNK A   0     -11.247  -2.679  -0.780  1.00  0.00    -0.272 OA
ATOM      5  H   HIS A   1     -12.502  -1.538  -3.491  1.00  0.00     0.163 HD
BRANCH   3   6
HETATM    6  C   UNK A   0     -10.039  -2.030  -2.766  1.00  0.00     0.225 C 
BRANCH   6   7
HETATM    7  N   UNK A   0      -8.891  -1.767  -1.898  1.00  0.00    -0.352 N 
HETATM    8  C   UNK A   0      -7.631  -1.605  -2.421  1.00  0.00     0.217 C 
HETATM    9  O   UNK A   0      -7.415  -1.571  -3.625  1.00  0.00    -0.274 OA
HETATM   10  H   UNK A   0      -9.010  -1.960  -0.912  1.00  0.00     0.162 HD
BRANCH   8  11
HETATM   11  C   UNK A   0      -6.517  -1.425  -1.399  1.00  0.00     0.103 C 
BRANCH  11  12
HETATM   12  C   UNK A   0      -6.354  -2.639  -0.484  1.00  0.00     0.009 C 
BRANCH  12  13
HETATM   13  C   UNK A   0      -5.213  -2.444   0.515  1.00  0.00     0.002 C 
BRANCH  13  14
HETATM   14  C   UNK A   0      -5.067  -3.660   1.447  1.00  0.00     0.017 C 
BRANCH  14  15
HETATM   15  C   UNK A   0      -3.910  -3.506   2.448  1.00  0.00     0.072 C 
HETATM   16  C   UNK A   0      -3.764  -4.707   3.401  1.00  0.00     0.123 C 
HETATM   17  C   UNK A   0      -2.917  -5.825   2.737  1.00  0.00     0.119 C 
HETATM   18  N   UNK A   0      -2.983  -4.364   4.583  1.00  0.00    -0.335 N 
HETATM   19  C   UNK A   0      -2.218  -5.273   1.481  1.00  0.00     0.101 C 
HETATM   20  N   UNK A   0      -1.947  -6.164   3.763  1.00  0.00    -0.336 N 
HETATM   21  S   UNK A   0      -2.307  -3.469   1.583  1.00  0.00    -0.160 SA
HETATM   22  C   UNK A   0      -1.803  -5.078   4.605  1.00  0.00     0.316 C 
HETATM   23  H   UNK A   0      -1.095  -6.671   3.560  1.00  0.00     0.164 HD
HETATM   24  O   UNK A   0      -0.773  -4.749   5.167  1.00  0.00    -0.247 OA
HETATM   25  H   UNK A   0      -3.001  -3.463   5.043  1.00  0.00     0.164 HD
ENDBRANCH  14  15
ENDBRANCH  13  14
ENDBRANCH  12  13
ENDBRANCH  11  12
ENDBRANCH   8  11
ENDBRANCH   6   7
ENDBRANCH   3   6
ENDBRANCH   1   2
BRANCH   1  26
ATOM     26  CB  HIS A   1     -13.912  -1.242  -0.542  1.00  0.00     0.093 C 
BRANCH  26  27
ATOM     27  CG  HIS A   1     -13.739   0.227  -0.707  1.00  0.00     0.028 A 
ATOM     28  CD2 HIS A   1     -14.649   1.243  -0.898  1.00  0.00     0.114 A 
ATOM     29  NE2 HIS A   1     -14.011   2.435  -1.101  1.00  0.00    -0.360 N 
ATOM     30  CE1 HIS A   1     -12.730   2.164  -1.014  1.00  0.00     0.180 A 
ATOM     31  HE2 HIS A   1     -14.440   3.343  -1.282  1.00  0.00     0.166 HD
ATOM     32  ND1 HIS A   1     -12.513   0.845  -0.740  1.00  0.00    -0.354 N 
ATOM     33  HD1 HIS A   1     -11.613   0.400  -0.626  1.00  0.00     0.166 HD
ENDBRANCH  26  27
ENDBRANCH   1  26
BRANCH   1  34
ATOM     34  C   HIS A   1     -14.947  -1.514  -2.887  1.00  0.00     0.241 C 
ATOM     35  O   HIS A   1     -14.675  -1.212  -4.051  1.00  0.00    -0.271 OA
ATOM     36  N   LYS A   2     -16.247  -1.494  -2.414  1.00  0.00    -0.345 N 
ATOM     37  H   LYS A   2     -16.445  -1.753  -1.453  1.00  0.00     0.163 HD
BRANCH  36  38
ATOM     38  CA  LYS A   2     -17.422  -1.025  -3.196  1.00  0.00     0.182 C 
BRANCH  38  39
ATOM     39  CB  LYS A   2     -17.975  -2.161  -4.069  1.00  0.00     0.036 C 
BRANCH  39  40
ATOM     40  CG  LYS A   2     -18.444  -3.359  -3.233  1.00  0.00     0.004 C 
BRANCH  40  41
ATOM     41  CD  LYS A   2     -19.024  -4.485  -4.087  1.00  0.00     0.030 C 
BRANCH  41  42
ATOM     42  CE  LYS A   2     -19.443  -5.649  -3.189  1.00  0.00     0.267 C 
BRANCH  42  43
ATOM     43  NZ  LYS A   2     -20.006  -6.734  -3.979  1.00  0.00     0.078 N 
ATOM     44  HZ1 LYS A   2     -20.851  -6.415  -4.450  1.00  0.00     0.312 HD
ATOM     45  HZ2 LYS A   2     -20.298  -7.486  -3.354  1.00  0.00     0.312 HD
ENDBRANCH  42  43
ENDBRANCH  41  42
ENDBRANCH  40  41
ENDBRANCH  39  40
ENDBRANCH  38  39
BRANCH  38  46
ATOM     46  C   LYS A   2     -18.515  -0.494  -2.233  1.00  0.00     0.163 C 
ATOM     47  O   LYS A   2     -18.373  -0.533  -1.013  1.00  0.00    -0.648 OA
BRANCH  46  48
ATOM     48  OXT LYS A   2     -19.658  -0.014  -2.787  1.00  0.00    -0.775 OA
ATOM     49  HXT LYS A   2     -19.777   0.054  -3.716  1.00  0.00     0.167 HD
ENDBRANCH  46  48
ENDBRANCH  38  46
ENDBRANCH  36  38
ENDBRANCH   1  34
TORSDOF 19
