REMARK  20 active torsions:
REMARK  status: ('A' for Active; 'I' for Inactive)
REMARK    1  A    between atoms: C_2  and  C_3 
REMARK    2  A    between atoms: C_3  and  C_4 
REMARK    3  A    between atoms: C_4  and  C_5 
REMARK    4  A    between atoms: C_5  and  C_6 
REMARK    5  A    between atoms: C_6  and  C_7 
REMARK    6  A    between atoms: C_7  and  C_8 
REMARK    7  A    between atoms: C_8  and  C_9 
REMARK    8  A    between atoms: C_9  and  C_10 
REMARK    9  A    between atoms: C_10  and  C_11 
REMARK   10  A    between atoms: C_11  and  C_12 
REMARK   11  A    between atoms: C_12  and  C_13 
REMARK   12  A    between atoms: C_13  and  C_14 
REMARK   13  A    between atoms: C_14  and  C_15 
REMARK   14  A    between atoms: C_15  and  C_16 
REMARK   15  A    between atoms: C_16  and  C_17 
REMARK   16  A    between atoms: C_17  and  C_18 
REMARK   17  A    between atoms: C_18  and  O_20 
REMARK   18  A    between atoms: O_20  and  C_21 
REMARK   19  A    between atoms: C_21  and  C_22 
REMARK   20  A    between atoms: C_22  and  C_23 
ROOT
HETATM    1  C   UNL     1      12.617  -1.919   6.930  1.00  0.00     0.000 C 
ENDROOT
BRANCH   1   2
HETATM    2  C   UNL     1      11.097  -1.917   6.919  1.00  0.00     0.000 C 
BRANCH   2   3
HETATM    3  C   UNL     1      10.585  -1.552   5.536  1.00  0.00     0.000 C 
BRANCH   3   4
HETATM    4  C   UNL     1       9.066  -1.549   5.530  1.00  0.00     0.000 C 
BRANCH   4   5
HETATM    5  C   UNL     1       8.552  -1.183   4.150  1.00  0.00     0.000 C 
BRANCH   5   6
HETATM    6  C   UNL     1       7.033  -1.178   4.145  1.00  0.00     0.000 C 
BRANCH   6   7
HETATM    7  C   UNL     1       6.519  -0.814   2.763  1.00  0.00     0.000 C 
BRANCH   7   8
HETATM    8  C   UNL     1       5.000  -0.808   2.756  1.00  0.00     0.000 C 
BRANCH   8   9
HETATM    9  C   UNL     1       4.486  -0.443   1.372  1.00  0.00     0.000 C 
BRANCH   9  10
HETATM   10  C   UNL     1       2.965  -0.436   1.361  1.00  0.00    -0.000 C 
BRANCH  10  11
HETATM   11  C   UNL     1       2.439  -0.072  -0.021  1.00  0.00    -0.005 C 
HETATM   12  C   UNL     1       0.922  -0.068  -0.029  1.00  0.00     0.005 C 
ENDBRANCH  10  11
ENDBRANCH   9  10
ENDBRANCH   8   9
ENDBRANCH   7   8
ENDBRANCH   6   7
ENDBRANCH   5   6
ENDBRANCH   4   5
ENDBRANCH   3   4
ENDBRANCH   2   3
ENDBRANCH   1   2
BRANCH   1  13
HETATM   13  C   UNL     1      13.129  -2.285   8.315  1.00  0.00     0.000 C 
BRANCH  13  14
HETATM   14  C   UNL     1      14.650  -2.290   8.335  1.00  0.00     0.000 C 
BRANCH  14  15
HETATM   15  C   UNL     1      15.171  -2.656   9.722  1.00  0.00     0.000 C 
BRANCH  15  16
HETATM   16  C   UNL     1      16.694  -2.656   9.727  1.00  0.00     0.010 C 
BRANCH  16  17
HETATM   17  C   UNL     1      17.273  -3.012  11.093  1.00  0.00     0.111 C 
BRANCH  17  18
HETATM   18  C   UNL     1      18.787  -2.989  11.037  1.00  0.00     0.258 C 
HETATM   19  O   UNL     1      19.450  -2.753  10.047  1.00  0.00    -0.265 OA
BRANCH  18  20
HETATM   20  O   UNL     1      19.296  -3.344  12.253  1.00  0.00    -0.321 OA
BRANCH  20  21
HETATM   21  C   UNL     1      20.157  -4.491  12.190  1.00  0.00     0.178 C 
BRANCH  21  22
HETATM   22  C   UNL     1      21.573  -4.142  12.630  1.00  0.00     0.026 C 
BRANCH  22  23
HETATM   23  C   UNL     1      22.485  -5.368  12.591  1.00  0.00    -0.002 C 
HETATM   24  C   UNL     1      23.901  -5.021  13.022  1.00  0.00     0.005 C 
ENDBRANCH  22  23
ENDBRANCH  21  22
ENDBRANCH  20  21
ENDBRANCH  18  20
ENDBRANCH  17  18
ENDBRANCH  16  17
ENDBRANCH  15  16
ENDBRANCH  14  15
ENDBRANCH  13  14
ENDBRANCH   1  13
TORSDOF 20
