REMARK  19 active torsions:
REMARK  status: ('A' for Active; 'I' for Inactive)
REMARK    1  A    between atoms: C_2  and  C_3 
REMARK    2  A    between atoms: C_3  and  C_4 
REMARK    3  A    between atoms: C_4  and  C_5 
REMARK    4  A    between atoms: C_5  and  C_6 
REMARK    5  A    between atoms: C_6  and  C_7 
REMARK    6  A    between atoms: C_7  and  C_8 
REMARK    7  A    between atoms: C_8  and  C_9 
REMARK    8  A    between atoms: C_10  and  C_11 
REMARK    9  A    between atoms: C_11  and  C_12 
REMARK   10  A    between atoms: C_12  and  C_13 
REMARK   11  A    between atoms: C_13  and  C_14 
REMARK   12  A    between atoms: C_14  and  C_15 
REMARK   13  A    between atoms: C_15  and  C_16 
REMARK   14  A    between atoms: C_16  and  C_17 
REMARK   15  A    between atoms: C_17  and  C_18 
REMARK   16  A    between atoms: C_18  and  O_20 
REMARK   17  A    between atoms: O_20  and  C_21 
REMARK   18  A    between atoms: C_21  and  C_22 
REMARK   19  A    between atoms: C_22  and  C_23 
ROOT
HETATM    1  C   UNL     1      12.406  -3.350  -6.564  1.00  0.00     0.004 C 
ENDROOT
BRANCH   1   2
HETATM    2  C   UNL     1      10.884  -3.345  -6.552  1.00  0.00     0.027 C 
BRANCH   2   3
HETATM    3  C   UNL     1      10.372  -2.695  -5.313  1.00  0.00    -0.031 C 
HETATM    4  C   UNL     1       9.598  -1.600  -5.345  1.00  0.00    -0.031 C 
BRANCH   4   5
HETATM    5  C   UNL     1       9.084  -0.949  -4.105  1.00  0.00     0.027 C 
BRANCH   5   6
HETATM    6  C   UNL     1       7.563  -0.946  -4.096  1.00  0.00     0.004 C 
BRANCH   6   7
HETATM    7  C   UNL     1       7.047  -0.285  -2.825  1.00  0.00     0.000 C 
BRANCH   7   8
HETATM    8  C   UNL     1       5.527  -0.280  -2.815  1.00  0.00     0.000 C 
BRANCH   8   9
HETATM    9  C   UNL     1       5.011   0.381  -1.546  1.00  0.00     0.000 C 
BRANCH   9  10
HETATM   10  C   UNL     1       3.489   0.387  -1.534  1.00  0.00    -0.000 C 
BRANCH  10  11
HETATM   11  C   UNL     1       2.965   1.047  -0.266  1.00  0.00    -0.005 C 
HETATM   12  C   UNL     1       1.448   1.049  -0.257  1.00  0.00     0.005 C 
ENDBRANCH  10  11
ENDBRANCH   9  10
ENDBRANCH   8   9
ENDBRANCH   7   8
ENDBRANCH   6   7
ENDBRANCH   5   6
ENDBRANCH   4   5
ENDBRANCH   2   3
ENDBRANCH   1   2
BRANCH   1  13
HETATM   13  C   UNL     1      12.921  -4.013  -7.836  1.00  0.00     0.000 C 
BRANCH  13  14
HETATM   14  C   UNL     1      14.443  -4.021  -7.856  1.00  0.00     0.000 C 
BRANCH  14  15
HETATM   15  C   UNL     1      14.963  -4.687  -9.128  1.00  0.00     0.000 C 
BRANCH  15  16
HETATM   16  C   UNL     1      16.487  -4.691  -9.137  1.00  0.00     0.010 C 
BRANCH  16  17
HETATM   17  C   UNL     1      17.060  -5.356 -10.386  1.00  0.00     0.111 C 
BRANCH  17  18
HETATM   18  C   UNL     1      18.576  -5.339 -10.338  1.00  0.00     0.258 C 
HETATM   19  O   UNL     1      19.251  -4.828  -9.465  1.00  0.00    -0.265 OA
BRANCH  18  20
HETATM   20  O   UNL     1      19.077  -5.879 -11.489  1.00  0.00    -0.321 OA
BRANCH  20  21
HETATM   21  C   UNL     1      19.954  -4.998 -12.201  1.00  0.00     0.178 C 
BRANCH  21  22
HETATM   22  C   UNL     1      21.369  -5.550 -12.291  1.00  0.00     0.026 C 
BRANCH  22  23
HETATM   23  C   UNL     1      22.284  -4.619 -13.092  1.00  0.00    -0.002 C 
HETATM   24  C   UNL     1      23.700  -5.164 -13.170  1.00  0.00     0.005 C 
ENDBRANCH  22  23
ENDBRANCH  21  22
ENDBRANCH  20  21
ENDBRANCH  18  20
ENDBRANCH  17  18
ENDBRANCH  16  17
ENDBRANCH  15  16
ENDBRANCH  14  15
ENDBRANCH  13  14
ENDBRANCH   1  13
TORSDOF 19
