REMARK  6 active torsions:
REMARK  status: ('A' for Active; 'I' for Inactive)
REMARK    1  A    between atoms: C_2  and  C_5 
REMARK    2  A    between atoms: C_8  and  C_11 
REMARK    3  A    between atoms: C_11  and  C_13 
REMARK    4  A    between atoms: C_13  and  C_14 
REMARK    5  A    between atoms: C_14  and  C_16 
REMARK    6  A    between atoms: C_19  and  O_22 
ROOT
HETATM    1  C   UNL     1       4.527  -5.461  -0.064  1.00  0.00     0.166 C 
HETATM    2  O   UNL     1       5.515  -5.742   0.610  1.00  0.00    -0.292 OA
ENDROOT
BRANCH   1   3
HETATM    3  C   UNL     1       4.021  -4.060  -0.092  1.00  0.00     0.010 A 
HETATM    4  C   UNL     1       4.919  -3.011   0.104  1.00  0.00     0.015 A 
HETATM    5  C   UNL     1       4.467  -1.684   0.091  1.00  0.00     0.009 A 
HETATM    6  C   UNL     1       3.109  -1.377  -0.099  1.00  0.00    -0.051 A 
HETATM    7  C   UNL     1       2.226  -2.453  -0.300  1.00  0.00     0.009 A 
HETATM    8  C   UNL     1       2.671  -3.778  -0.299  1.00  0.00     0.015 A 
BRANCH   6   9
HETATM    9  C   UNL     1       2.570   0.065  -0.075  1.00  0.00    -0.024 C 
HETATM   10  C   UNL     1       3.664   1.129   0.163  1.00  0.00     0.019 C 
HETATM   11  C   UNL     1       1.536   0.208   1.063  1.00  0.00     0.019 C 
HETATM   12  C   UNL     1       1.891   0.399  -1.421  1.00  0.00     0.019 C 
ENDBRANCH   6   9
ENDBRANCH   1   3
BRANCH   1  13
HETATM   13  C   UNL     1       3.828  -6.503  -0.902  1.00  0.00     0.167 C 
BRANCH  13  14
HETATM   14  C   UNL     1       3.872  -6.199  -2.378  1.00  0.00     0.166 C 
HETATM   15  O   UNL     1       2.837  -6.043  -3.024  1.00  0.00    -0.292 OA
BRANCH  14  16
HETATM   16  C   UNL     1       5.192  -6.063  -3.058  1.00  0.00     0.010 A 
HETATM   17  C   UNL     1       6.346  -6.695  -2.583  1.00  0.00     0.018 A 
HETATM   18  C   UNL     1       7.562  -6.547  -3.264  1.00  0.00     0.037 A 
HETATM   19  C   UNL     1       7.634  -5.762  -4.416  1.00  0.00     0.068 A 
HETATM   20  C   UNL     1       6.480  -5.128  -4.883  1.00  0.00     0.037 A 
HETATM   21  C   UNL     1       5.264  -5.281  -4.214  1.00  0.00     0.018 A 
BRANCH  19  22
HETATM   22  O   UNL     1       8.754  -5.531  -5.164  1.00  0.00    -0.356 OA
HETATM   23  C   UNL     1       9.950  -6.182  -4.755  1.00  0.00     0.210 C 
ENDBRANCH  19  22
ENDBRANCH  14  16
ENDBRANCH  13  14
ENDBRANCH   1  13
TORSDOF 6
