REMARK  17 active torsions:
REMARK  status: ('A' for Active; 'I' for Inactive)
REMARK    1  A    between atoms: C_1  and  O_37 
REMARK    2  A    between atoms: C_2  and  O_36 
REMARK    3  A    between atoms: C_3  and  C_33 
REMARK    4  A    between atoms: C_5  and  O_8 
REMARK    5  A    between atoms: C_6  and  O_7 
REMARK    6  A    between atoms: O_8  and  C_9 
REMARK    7  A    between atoms: C_10  and  O_32 
REMARK    8  A    between atoms: C_11  and  O_31 
REMARK    9  A    between atoms: C_12  and  O_18 
REMARK   10  A    between atoms: C_14  and  C_15 
REMARK   11  A    between atoms: C_15  and  O_17 
REMARK   12  A    between atoms: O_18  and  C_19 
REMARK   13  A    between atoms: C_20  and  O_30 
REMARK   14  A    between atoms: C_21  and  O_29 
REMARK   15  A    between atoms: C_22  and  O_28 
REMARK   16  A    between atoms: C_24  and  C_25 
REMARK   17  A    between atoms: C_25  and  O_26 
ROOT
HETATM    1  C   UNL     1      -3.865  -0.779  -0.054  1.00  0.00     0.195 C 
HETATM    2  C   UNL     1      -3.505  -2.027   0.755  1.00  0.00     0.183 C 
HETATM    3  C   UNL     1      -2.315  -2.749   0.102  1.00  0.00     0.204 C 
HETATM    4  C   UNL     1      -2.466  -3.016  -1.437  1.00  0.00     0.293 C 
HETATM    5  O   UNL     1      -3.069  -1.917  -2.123  1.00  0.00    -0.340 OA
HETATM    6  C   UNL     1      -4.211  -1.316  -1.477  1.00  0.00     0.253 C 
ENDROOT
BRANCH   4   7
HETATM    7  O   UNL     1      -2.922  -4.333  -1.782  1.00  0.00    -0.347 OA
BRANCH   7   8
HETATM    8  C   UNL     1      -2.993  -4.764  -3.173  1.00  0.00     0.195 C 
HETATM    9  C   UNL     1      -3.225  -6.312  -3.155  1.00  0.00     0.183 C 
HETATM   10  C   UNL     1      -1.936  -7.111  -2.841  1.00  0.00     0.204 C 
HETATM   11  C   UNL     1      -0.735  -6.648  -3.691  1.00  0.00     0.289 C 
HETATM   12  O   UNL     1      -0.596  -5.229  -3.645  1.00  0.00    -0.341 OA
HETATM   13  C   UNL     1      -1.787  -4.543  -4.120  1.00  0.00     0.258 C 
BRANCH   9  14
HETATM   14  O   UNL     1      -3.734  -6.768  -4.421  1.00  0.00    -0.390 OA
HETATM   15  H   UNL     1      -3.742  -7.746  -4.358  1.00  0.00     0.210 HD
ENDBRANCH   9  14
BRANCH  10  16
HETATM   16  O   UNL     1      -2.180  -8.515  -3.078  1.00  0.00    -0.388 OA
HETATM   17  H   UNL     1      -1.361  -9.000  -2.862  1.00  0.00     0.210 HD
ENDBRANCH  10  16
BRANCH  11  18
HETATM   18  O   UNL     1      -0.779  -7.153  -5.022  1.00  0.00    -0.368 OA
HETATM   19  H   UNL     1      -1.419  -7.891  -5.021  1.00  0.00     0.212 HD
ENDBRANCH  11  18
BRANCH  13  20
HETATM   20  C   UNL     1      -1.476  -3.071  -4.378  1.00  0.00     0.321 C 
HETATM   21  O   UNL     1      -2.383  -2.279  -4.736  1.00  0.00    -0.260 OA
BRANCH  20  22
HETATM   22  O   UNL     1      -0.287  -2.677  -4.070  1.00  0.00    -0.147 OA
HETATM   23 CA   UNL     2       0.880  -1.449  -3.070  1.00  0.00     0.000 Ca
ENDBRANCH  20  22
ENDBRANCH  13  20
ENDBRANCH   7   8
ENDBRANCH   4   7
BRANCH   3  24
HETATM   24  O   UNL     1      -1.948  -3.922   0.831  1.00  0.00    -0.388 OA
HETATM   25  H   UNL     1      -1.777  -3.638   1.750  1.00  0.00     0.210 HD
ENDBRANCH   3  24
BRANCH   2  26
HETATM   26  O   UNL     1      -4.646  -2.875   0.810  1.00  0.00    -0.390 OA
HETATM   27  H   UNL     1      -4.381  -3.714   1.241  1.00  0.00     0.210 HD
ENDBRANCH   2  26
BRANCH   6  28
HETATM   28  C   UNL     1      -4.752  -0.158  -2.318  1.00  0.00     0.172 C 
HETATM   29  O   UNL     1      -5.418   0.769  -1.884  1.00  0.00    -0.648 OA
BRANCH  28  30
HETATM   30  O   UNL     1      -4.396  -0.245  -3.628  1.00  0.00    -0.774 OA
HETATM   31  H   UNL     1      -3.839  -1.053  -3.815  1.00  0.00     0.167 HD
ENDBRANCH  28  30
ENDBRANCH   6  28
BRANCH   1  32
HETATM   32  O   UNL     1      -2.768   0.160  -0.126  1.00  0.00    -0.347 OA
BRANCH  32  33
HETATM   33  C   UNL     1      -2.518   1.034   1.017  1.00  0.00     0.293 C 
HETATM   34  O   UNL     1      -1.938   0.334   2.115  1.00  0.00    -0.340 OA
HETATM   35  C   UNL     1      -1.478   1.296   3.133  1.00  0.00     0.256 C 
HETATM   36  C   UNL     1      -2.663   2.058   3.739  1.00  0.00     0.189 C 
HETATM   37  C   UNL     1      -3.341   2.854   2.624  1.00  0.00     0.183 C 
HETATM   38  C   UNL     1      -3.711   1.947   1.444  1.00  0.00     0.204 C 
BRANCH  35  39
HETATM   39  C   UNL     1      -0.626   0.596   4.215  1.00  0.00     0.206 C 
HETATM   40  O   UNL     1      -1.199   0.401   5.326  1.00  0.00    -0.646 OA
HETATM   41  O   UNL     1       0.550   0.295   3.847  1.00  0.00    -0.646 OA
ENDBRANCH  35  39
BRANCH  36  42
HETATM   42  O   UNL     1      -3.617   1.147   4.308  1.00  0.00    -0.390 OA
HETATM   43  H   UNL     1      -3.080   0.655   4.981  1.00  0.00     0.210 HD
ENDBRANCH  36  42
BRANCH  37  44
HETATM   44  O   UNL     1      -2.468   3.904   2.170  1.00  0.00    -0.390 OA
HETATM   45  H   UNL     1      -2.933   4.288   1.399  1.00  0.00     0.210 HD
ENDBRANCH  37  44
BRANCH  38  46
HETATM   46  O   UNL     1      -4.099   2.784   0.332  1.00  0.00    -0.388 OA
HETATM   47  H   UNL     1      -4.401   2.191  -0.387  1.00  0.00     0.210 HD
ENDBRANCH  38  46
ENDBRANCH  32  33
ENDBRANCH   1  32
TORSDOF 17
