REMARK  9 active torsions:
REMARK  status: ('A' for Active; 'I' for Inactive)
REMARK    1  A    between atoms: C_2  and  C_3 
REMARK    2  A    between atoms: C_3  and  C_4 
REMARK    3  A    between atoms: C_4  and  C_5 
REMARK    4  A    between atoms: C_5  and  C_6 
REMARK    5  A    between atoms: C_6  and  C_7 
REMARK    6  A    between atoms: C_7  and  C_8 
REMARK    7  A    between atoms: C_8  and  C_9 
REMARK    8  A    between atoms: C_9  and  C_10 
REMARK    9  A    between atoms: C_10  and  O_12 
ROOT
HETATM    1  C   UNL     1       7.206  -3.417   2.674  1.00  0.00     0.001 C 
ENDROOT
BRANCH   1   2
HETATM    2  C   UNL     1       6.676  -2.280   1.799  1.00  0.00     0.000 C 
BRANCH   2   3
HETATM    3  C   UNL     1       5.151  -2.259   1.783  1.00  0.00     0.000 C 
BRANCH   3   4
HETATM    4  C   UNL     1       4.630  -1.123   0.908  1.00  0.00     0.000 C 
BRANCH   4   5
HETATM    5  C   UNL     1       3.103  -1.105   0.897  1.00  0.00    -0.000 C 
BRANCH   5   6
HETATM    6  C   UNL     1       2.569   0.029   0.026  1.00  0.00    -0.005 C 
HETATM    7  C   UNL     1       1.050   0.042   0.022  1.00  0.00     0.005 C 
ENDBRANCH   5   6
ENDBRANCH   4   5
ENDBRANCH   3   4
ENDBRANCH   2   3
ENDBRANCH   1   2
BRANCH   1   8
HETATM    8  C   UNL     1       8.732  -3.417   2.675  1.00  0.00     0.010 C 
BRANCH   8   9
HETATM    9  C   UNL     1       9.305  -4.537   3.537  1.00  0.00     0.110 C 
BRANCH   9  10
HETATM   10  C   UNL     1      10.816  -4.515   3.520  1.00  0.00     0.139 C 
HETATM   11  O   UNL     1      11.508  -3.719   2.907  1.00  0.00    -0.650 OA
BRANCH  10  12
HETATM   12  O   UNL     1      11.349  -5.502   4.280  1.00  0.00    -0.776 OA
HETATM   13  H   UNL     1      10.686  -6.068   4.716  1.00  0.00     0.167 HD
ENDBRANCH  10  12
ENDBRANCH   9  10
ENDBRANCH   8   9
ENDBRANCH   1   8
TORSDOF 9
