REMARK  8 active torsions:
REMARK  status: ('A' for Active; 'I' for Inactive)
REMARK    1  A    between atoms: C_1  and  C_2 
REMARK    2  A    between atoms: C_1  and  S_7 
REMARK    3  A    between atoms: C_2  and  C_3 
REMARK    4  A    between atoms: C_2  and  N_6 
REMARK    5  A    between atoms: C_3  and  O_5 
REMARK    6  A    between atoms: S_7  and  C_8 
REMARK    7  A    between atoms: C_8  and  C_9 
REMARK    8  A    between atoms: C_9  and  O_11 
ROOT
HETATM    1  C   UNK     1       0.675   1.034  -0.996  1.00  0.00     0.323 C 
ENDROOT
BRANCH   1   2
HETATM    2  C   UNK     1       1.293   0.043   0.006  1.00  0.00     0.120 C 
BRANCH   2   3
HETATM    3  S   UNK     1       3.125   0.204   0.086  1.00  0.00    -0.156 SA
BRANCH   3   4
HETATM    4  C   UNK     1       3.463  -0.993   1.418  1.00  0.00     0.183 C 
BRANCH   4   5
HETATM    5  C   UNK     1       3.221  -2.404   0.932  1.00  0.00     0.149 C 
HETATM    6  O   UNK     1       2.511  -3.213   1.509  1.00  0.00    -0.649 OA
BRANCH   5   7
HETATM    7  O   UNK     1       3.878  -2.700  -0.216  1.00  0.00    -0.776 OA
HETATM    8  H   UNK     1       4.356  -1.920  -0.568  1.00  0.00     0.167 HD
ENDBRANCH   5   7
ENDBRANCH   4   5
ENDBRANCH   3   4
ENDBRANCH   2   3
ENDBRANCH   1   2
BRANCH   1   9
HETATM    9  C   UNK     1      -0.829   0.740  -1.105  1.00  0.00     0.174 C 
HETATM   10  O   UNK     1      -1.679   1.270  -0.402  1.00  0.00    -0.648 OA
BRANCH   9  11
HETATM   11  O   UNK     1      -1.146  -0.168  -2.055  1.00  0.00    -0.775 OA
HETATM   12  H   UNK     1      -0.395  -0.503  -2.583  1.00  0.00     0.167 HD
ENDBRANCH   9  11
ENDBRANCH   1   9
BRANCH   1  13
HETATM   13  N   UNK     1       0.869   2.446  -0.589  1.00  0.00     0.093 N 
HETATM   14  H   UNK     1       0.326   2.605   0.266  1.00  0.00     0.314 HD
HETATM   15  H   UNK     1       0.427   3.054  -1.280  1.00  0.00     0.314 HD
ENDBRANCH   1  13
TORSDOF 8
