REMARK  12 active torsions:
REMARK  status: ('A' for Active; 'I' for Inactive)
REMARK    1  A    between atoms: C_6  and  O_11 
REMARK    2  A    between atoms: C_7  and  C_8 
REMARK    3  A    between atoms: C_8  and  O_10 
REMARK    4  A    between atoms: C_18  and  O_35 
REMARK    5  A    between atoms: C_19  and  C_24 
REMARK    6  A    between atoms: C_20  and  O_23 
REMARK    7  A    between atoms: C_21  and  O_22 
REMARK    8  A    between atoms: C_25  and  O_34 
REMARK    9  A    between atoms: C_26  and  O_33 
REMARK   10  A    between atoms: C_27  and  O_32 
REMARK   11  A    between atoms: C_28  and  C_30 
REMARK   12  A    between atoms: C_30  and  O_31 
ROOT
HETATM    1  C   UNL     1       1.048  -0.198   0.043  1.00  0.00     0.050 C 
HETATM    2  C   UNL     1       2.566  -0.178   0.049  1.00  0.00    -0.027 A 
HETATM    3  C   UNL     1       3.330   1.038   0.046  1.00  0.00     0.036 A 
HETATM    4  C   UNL     1       4.732   1.007   0.047  1.00  0.00     0.032 A 
HETATM    5  C   UNL     1       5.393  -0.217   0.052  1.00  0.00     0.054 A 
HETATM    6  C   UNL     1       4.668  -1.411   0.061  1.00  0.00     0.084 A 
HETATM    7  C   UNL     1       3.256  -1.426   0.060  1.00  0.00     0.077 A 
HETATM    8  C   UNL     1       5.560   2.252   0.054  1.00  0.00     0.197 A 
HETATM    9  O   UNL     1       6.779   2.128   0.078  1.00  0.00    -0.286 OA
HETATM   10  C   UNL     1       4.902   3.583   0.018  1.00  0.00     0.068 A 
HETATM   11  C   UNL     1       3.520   3.601  -0.035  1.00  0.00     0.066 A 
HETATM   12  C   UNL     1       2.716   2.377   0.064  1.00  0.00     0.197 A 
HETATM   13  O   UNL     1       1.508   2.533   0.205  1.00  0.00    -0.286 OA
HETATM   14  C   UNL     1       2.857   4.837  -0.123  1.00  0.00     0.092 A 
HETATM   15  C   UNL     1       3.512   6.091  -0.052  1.00  0.00     0.043 A 
HETATM   16  C   UNL     1       4.892   6.060   0.013  1.00  0.00     0.111 A 
HETATM   17  C   UNL     1       5.584   4.819   0.032  1.00  0.00     0.115 A 
ENDROOT
BRANCH  15  18
HETATM   18  C   UNL     1       2.551   7.265   0.015  1.00  0.00     0.192 C 
HETATM   19  C   UNL     1       1.764   7.242   1.353  1.00  0.00     0.183 C 
HETATM   20  C   UNL     1       0.413   7.894   1.047  1.00  0.00     0.181 C 
HETATM   21  C   UNL     1       0.599   9.314   0.486  1.00  0.00     0.180 C 
HETATM   22  C   UNL     1       1.660   9.333  -0.652  1.00  0.00     0.177 C 
HETATM   23  O   UNL     1       2.917   8.645  -0.255  1.00  0.00    -0.368 OA
BRANCH  19  24
HETATM   24  O   UNL     1       2.467   7.944   2.393  1.00  0.00    -0.390 OA
HETATM   25  H   UNL     1       2.983   8.652   1.975  1.00  0.00     0.210 HD
ENDBRANCH  19  24
BRANCH  20  26
HETATM   26  O   UNL     1      -0.418   7.896   2.205  1.00  0.00    -0.390 OA
HETATM   27  H   UNL     1       0.058   8.440   2.864  1.00  0.00     0.210 HD
ENDBRANCH  20  26
BRANCH  21  28
HETATM   28  O   UNL     1       0.933  10.214   1.554  1.00  0.00    -0.390 OA
HETATM   29  H   UNL     1       1.890  10.368   1.571  1.00  0.00     0.210 HD
ENDBRANCH  21  28
BRANCH  22  30
HETATM   30  C   UNL     1       1.912  10.765  -1.135  1.00  0.00     0.198 C 
BRANCH  30  31
HETATM   31  O   UNL     1       2.830  10.765  -2.223  1.00  0.00    -0.398 OA
HETATM   32  H   UNL     1       3.649  10.357  -1.899  1.00  0.00     0.209 HD
ENDBRANCH  30  31
ENDBRANCH  22  30
ENDBRANCH  15  18
BRANCH  14  33
HETATM   33  O   UNL     1       1.481   4.891  -0.273  1.00  0.00    -0.359 OA
HETATM   34  H   UNL     1       1.102   3.996  -0.106  1.00  0.00     0.217 HD
ENDBRANCH  14  33
BRANCH  16  35
HETATM   35  O   UNL     1       5.657   7.197   0.059  1.00  0.00    -0.357 OA
HETATM   36  H   UNL     1       5.066   7.967  -0.041  1.00  0.00     0.217 HD
ENDBRANCH  16  35
BRANCH  17  37
HETATM   37  O   UNL     1       6.954   4.864   0.082  1.00  0.00    -0.357 OA
HETATM   38  H   UNL     1       7.200   5.810   0.104  1.00  0.00     0.217 HD
ENDBRANCH  17  37
BRANCH   7  39
HETATM   39  C   UNL     1       2.491  -2.743   0.080  1.00  0.00     0.179 C 
HETATM   40  O   UNL     1       1.275  -2.840   0.090  1.00  0.00    -0.646 OA
BRANCH  39  41
HETATM   41  O   UNL     1       3.250  -3.862   0.093  1.00  0.00    -0.773 OA
HETATM   42  H   UNL     1       4.213  -3.674   0.088  1.00  0.00     0.167 HD
ENDBRANCH  39  41
ENDBRANCH   7  39
BRANCH   6  43
HETATM   43  O   UNL     1       5.376  -2.587   0.062  1.00  0.00    -0.360 OA
HETATM   44  H   UNL     1       6.332  -2.394   0.061  1.00  0.00     0.217 HD
ENDBRANCH   6  43
TORSDOF 12
