REMARK  12 active torsions:
REMARK  status: ('A' for Active; 'I' for Inactive)
REMARK    1  A    between atoms: C_1  and  C_2 
REMARK    2  A    between atoms: C_1  and  O_23 
REMARK    3  A    between atoms: C_3  and  O_22 
REMARK    4  A    between atoms: C_4  and  O_21 
REMARK    5  A    between atoms: C_5  and  O_20 
REMARK    6  A    between atoms: C_6  and  O_8 
REMARK    7  A    between atoms: O_8  and  C_9 
REMARK    8  A    between atoms: C_10  and  C_18 
REMARK    9  A    between atoms: C_12  and  O_17 
REMARK   10  A    between atoms: C_13  and  O_16 
REMARK   11  A    between atoms: C_14  and  O_15 
REMARK   12  A    between atoms: C_18  and  O_19 
ROOT
HETATM    1  O   UNL     1      -2.988  -0.397   0.412  1.00  0.00    -0.348 OA
ENDROOT
BRANCH   1   2
HETATM    2  C   UNL     1      -1.666  -0.966   0.529  1.00  0.00     0.292 C 
HETATM    3  C   UNL     1      -1.133  -0.696   1.948  1.00  0.00     0.204 C 
HETATM    4  C   UNL     1       0.285  -1.273   2.054  1.00  0.00     0.183 C 
HETATM    5  C   UNL     1       1.207  -0.667   0.977  1.00  0.00     0.180 C 
HETATM    6  C   UNL     1       0.572  -0.799  -0.419  1.00  0.00     0.179 C 
HETATM    7  O   UNL     1      -0.800  -0.361  -0.421  1.00  0.00    -0.348 OA
BRANCH   3   8
HETATM    8  O   UNL     1      -1.076   0.728   2.195  1.00  0.00    -0.388 OA
HETATM    9  H   UNL     1      -1.888   1.092   1.786  1.00  0.00     0.210 HD
ENDBRANCH   3   8
BRANCH   4  10
HETATM   10  O   UNL     1       0.811  -1.031   3.359  1.00  0.00    -0.390 OA
HETATM   11  H   UNL     1       0.810  -0.057   3.466  1.00  0.00     0.210 HD
ENDBRANCH   4  10
BRANCH   5  12
HETATM   12  O   UNL     1       1.445   0.723   1.264  1.00  0.00    -0.390 OA
HETATM   13  H   UNL     1       0.572   1.137   1.437  1.00  0.00     0.210 HD
ENDBRANCH   5  12
BRANCH   6  14
HETATM   14  C   UNL     1       0.693  -2.214  -1.001  1.00  0.00     0.198 C 
BRANCH  14  15
HETATM   15  O   UNL     1       0.030  -2.305  -2.262  1.00  0.00    -0.398 OA
HETATM   16  H   UNL     1      -0.916  -2.146  -2.100  1.00  0.00     0.209 HD
ENDBRANCH  14  15
ENDBRANCH   6  14
ENDBRANCH   1   2
BRANCH   1  17
HETATM   17  C   UNL     1      -3.644  -0.815  -0.817  1.00  0.00     0.187 C 
HETATM   18  C   UNL     1      -3.233   0.066  -2.019  1.00  0.00     0.180 C 
HETATM   19  O   UNL     1      -3.694   1.410  -1.884  1.00  0.00    -0.349 OA
HETATM   20  C   UNL     1      -5.076   1.593  -1.661  1.00  0.00     0.288 C 
HETATM   21  C   UNL     1      -5.664   0.722  -0.529  1.00  0.00     0.204 C 
HETATM   22  C   UNL     1      -5.169  -0.729  -0.623  1.00  0.00     0.183 C 
BRANCH  18  23
HETATM   23  C   UNL     1      -3.577  -0.593  -3.359  1.00  0.00     0.198 C 
BRANCH  23  24
HETATM   24  O   UNL     1      -2.885  -1.839  -3.462  1.00  0.00    -0.398 OA
HETATM   25  H   UNL     1      -2.055  -1.673  -3.949  1.00  0.00     0.209 HD
ENDBRANCH  23  24
ENDBRANCH  18  23
BRANCH  20  26
HETATM   26  O   UNL     1      -5.804   1.452  -2.876  1.00  0.00    -0.369 OA
HETATM   27  H   UNL     1      -6.309   0.624  -2.835  1.00  0.00     0.212 HD
ENDBRANCH  20  26
BRANCH  21  28
HETATM   28  O   UNL     1      -7.103   0.734  -0.600  1.00  0.00    -0.388 OA
HETATM   29  H   UNL     1      -7.383   1.511  -1.119  1.00  0.00     0.210 HD
ENDBRANCH  21  28
BRANCH  22  30
HETATM   30  O   UNL     1      -5.542  -1.487   0.539  1.00  0.00    -0.390 OA
HETATM   31  H   UNL     1      -5.100  -1.074   1.302  1.00  0.00     0.210 HD
ENDBRANCH  22  30
ENDBRANCH   1  17
TORSDOF 12
