REMARK  0 active torsions:
REMARK  status: ('A' for Active; 'I' for Inactive)
ROOT
HETATM    1  C   UNL     1      -0.393   0.962  -0.252  1.00  0.00     0.078 C 
HETATM    2  C   UNL     1      -1.495   0.273   0.605  1.00  0.00    -0.042 C 
HETATM    3  C   UNL     1      -2.860   0.518   0.637  1.00  0.00     0.021 C 
HETATM    4  C   UNL     1      -3.681  -0.609   0.703  1.00  0.00    -0.010 C 
HETATM    5  C   UNL     1      -3.052  -1.863   0.490  1.00  0.00     0.027 C 
HETATM    6  C   UNL     1      -1.734  -2.091   0.783  1.00  0.00     0.029 C 
HETATM    7  C   UNL     1      -0.953  -0.964   1.024  1.00  0.00    -0.018 C 
HETATM    8  C   UNL     1       0.472  -0.866   0.907  1.00  0.00    -0.021 C 
HETATM    9  C   UNL     1       1.512  -1.376   1.640  1.00  0.00     0.003 C 
HETATM   10  C   UNL     1       2.743  -1.305   1.020  1.00  0.00     0.118 C 
HETATM   11  C   UNL     1       2.687  -1.364  -0.373  1.00  0.00    -0.031 C 
HETATM   12  C   UNL     1       1.804  -0.469  -0.995  1.00  0.00     0.017 C 
HETATM   13  C   UNL     1       0.739  -0.066  -0.200  1.00  0.00    -0.043 C 
HETATM   14  C   UNL     1       3.090  -2.778  -0.650  1.00  0.00    -0.015 A 
HETATM   15  C   UNL     1       2.350  -3.777  -1.288  1.00  0.00     0.013 A 
HETATM   16  C   UNL     1       2.454  -5.120  -0.832  1.00  0.00     0.001 A 
HETATM   17  C   UNL     1       3.321  -5.494   0.212  1.00  0.00     0.001 A 
HETATM   18  C   UNL     1       4.091  -4.533   0.842  1.00  0.00     0.016 A 
HETATM   19  C   UNL     1       3.907  -3.221   0.426  1.00  0.00     0.021 A 
HETATM   20  C   UNL     1       3.842  -2.171   1.444  1.00  0.00     0.172 C 
HETATM   21  O   UNL     1       4.481  -2.077   2.469  1.00  0.00    -0.291 OA
HETATM   22  C   UNL     1      -3.917  -2.548  -0.513  1.00  0.00     0.194 C 
HETATM   23  O   UNL     1      -3.642  -3.550  -1.138  1.00  0.00    -0.287 OA
HETATM   24  C   UNL     1      -5.154  -1.733  -0.648  1.00  0.00     0.026 C 
HETATM   25  C   UNL     1      -6.264  -1.879  -1.453  1.00  0.00     0.016 C 
HETATM   26  C   UNL     1      -7.402  -1.165  -1.079  1.00  0.00     0.001 C 
HETATM   27  C   UNL     1      -7.408  -0.408   0.109  1.00  0.00     0.001 C 
HETATM   28  C   UNL     1      -6.220  -0.161   0.806  1.00  0.00     0.013 C 
HETATM   29  C   UNL     1      -5.067  -0.729   0.318  1.00  0.00    -0.011 C 
ENDROOT
TORSDOF 0
