REMARK  21 active torsions:
REMARK  status: ('A' for Active; 'I' for Inactive)
REMARK    1  A    between atoms: C_2  and  C_3 
REMARK    2  A    between atoms: C_3  and  C_4 
REMARK    3  A    between atoms: C_4  and  C_5 
REMARK    4  A    between atoms: C_5  and  C_6 
REMARK    5  A    between atoms: C_6  and  C_7 
REMARK    6  A    between atoms: C_7  and  C_8 
REMARK    7  A    between atoms: C_8  and  C_9 
REMARK    8  A    between atoms: C_9  and  C_10 
REMARK    9  A    between atoms: C_10  and  C_11 
REMARK   10  A    between atoms: C_11  and  C_12 
REMARK   11  A    between atoms: C_12  and  C_13 
REMARK   12  A    between atoms: C_13  and  C_14 
REMARK   13  A    between atoms: C_14  and  C_15 
REMARK   14  A    between atoms: C_15  and  C_16 
REMARK   15  A    between atoms: C_16  and  O_17 
REMARK   16  A    between atoms: O_17  and  C_18 
REMARK   17  A    between atoms: C_18  and  C_20 
REMARK   18  A    between atoms: C_20  and  C_21 
REMARK   19  A    between atoms: C_20  and  C_23 
REMARK   20  A    between atoms: C_23  and  C_24 
REMARK   21  A    between atoms: C_24  and  C_25 
ROOT
HETATM    1  C   UNL     1      13.233  -3.853  -7.778  1.00  0.00     0.000 C 
ENDROOT
BRANCH   1   2
HETATM    2  C   UNL     1      12.710  -3.212  -6.500  1.00  0.00     0.000 C 
BRANCH   2   3
HETATM    3  C   UNL     1      11.197  -3.212  -6.491  1.00  0.00     0.000 C 
BRANCH   3   4
HETATM    4  C   UNL     1      10.688  -2.578  -5.209  1.00  0.00     0.000 C 
BRANCH   4   5
HETATM    5  C   UNL     1       9.171  -2.576  -5.204  1.00  0.00     0.000 C 
BRANCH   5   6
HETATM    6  C   UNL     1       8.660  -1.941  -3.923  1.00  0.00     0.000 C 
BRANCH   6   7
HETATM    7  C   UNL     1       7.143  -1.939  -3.919  1.00  0.00     0.000 C 
BRANCH   7   8
HETATM    8  C   UNL     1       6.632  -1.305  -2.639  1.00  0.00     0.000 C 
BRANCH   8   9
HETATM    9  C   UNL     1       5.115  -1.302  -2.634  1.00  0.00     0.000 C 
BRANCH   9  10
HETATM   10  C   UNL     1       4.604  -0.665  -1.354  1.00  0.00     0.000 C 
BRANCH  10  11
HETATM   11  C   UNL     1       3.084  -0.662  -1.347  1.00  0.00    -0.000 C 
BRANCH  11  12
HETATM   12  C   UNL     1       2.562  -0.026  -0.068  1.00  0.00    -0.005 C 
HETATM   13  C   UNL     1       1.048  -0.023  -0.067  1.00  0.00     0.005 C 
ENDBRANCH  11  12
ENDBRANCH  10  11
ENDBRANCH   9  10
ENDBRANCH   8   9
ENDBRANCH   7   8
ENDBRANCH   6   7
ENDBRANCH   5   6
ENDBRANCH   4   5
ENDBRANCH   3   4
ENDBRANCH   2   3
ENDBRANCH   1   2
BRANCH   1  14
HETATM   14  C   UNL     1      14.754  -3.861  -7.789  1.00  0.00     0.002 C 
BRANCH  14  15
HETATM   15  C   UNL     1      15.308  -4.653  -6.606  1.00  0.00     0.027 C 
BRANCH  15  16
HETATM   16  C   UNL     1      16.828  -4.664  -6.624  1.00  0.00     0.178 C 
BRANCH  16  17
HETATM   17  O   UNL     1      17.313  -5.256  -7.847  1.00  0.00    -0.321 OA
BRANCH  17  18
HETATM   18  C   UNL     1      17.303  -6.618  -7.850  1.00  0.00     0.263 C 
HETATM   19  O   UNL     1      16.922  -7.307  -6.889  1.00  0.00    -0.265 OA
BRANCH  18  20
HETATM   20  C   UNL     1      17.795  -7.214  -9.164  1.00  0.00     0.085 C 
BRANCH  20  21
HETATM   21  C   UNL     1      19.316  -7.454  -9.150  1.00  0.00     0.010 C 
HETATM   22  C   UNL     1      20.109  -6.182  -8.922  1.00  0.00     0.006 C 
ENDBRANCH  20  21
BRANCH  20  23
HETATM   23  C   UNL     1      17.081  -8.558  -9.423  1.00  0.00     0.014 C 
BRANCH  23  24
HETATM   24  C   UNL     1      15.563  -8.404  -9.530  1.00  0.00     0.000 C 
BRANCH  24  25
HETATM   25  C   UNL     1      14.887  -9.748  -9.774  1.00  0.00    -0.005 C 
HETATM   26  C   UNL     1      13.384  -9.557  -9.872  1.00  0.00     0.005 C 
ENDBRANCH  24  25
ENDBRANCH  23  24
ENDBRANCH  20  23
ENDBRANCH  18  20
ENDBRANCH  17  18
ENDBRANCH  16  17
ENDBRANCH  15  16
ENDBRANCH  14  15
ENDBRANCH   1  14
TORSDOF 21
