REMARK  18 active torsions:
REMARK  status: ('A' for Active; 'I' for Inactive)
REMARK    1  A    between atoms: C_2  and  C_3 
REMARK    2  A    between atoms: C_3  and  C_4 
REMARK    3  A    between atoms: C_4  and  C_5 
REMARK    4  A    between atoms: C_5  and  C_6 
REMARK    5  A    between atoms: C_6  and  C_7 
REMARK    6  A    between atoms: C_7  and  C_8 
REMARK    7  A    between atoms: C_8  and  C_9 
REMARK    8  A    between atoms: C_9  and  C_10 
REMARK    9  A    between atoms: C_10  and  C_11 
REMARK   10  A    between atoms: C_11  and  C_12 
REMARK   11  A    between atoms: C_12  and  C_13 
REMARK   12  A    between atoms: C_13  and  C_14 
REMARK   13  A    between atoms: C_14  and  C_15 
REMARK   14  A    between atoms: C_15  and  C_16 
REMARK   15  A    between atoms: C_16  and  O_17 
REMARK   16  A    between atoms: O_17  and  P_18 
REMARK   17  A    between atoms: P_18  and  O_20 
REMARK   18  A    between atoms: P_18  and  O_21 
ROOT
HETATM    1  C   UNL     1      12.742   5.841  -4.197  1.00  0.00     0.000 C 
ENDROOT
BRANCH   1   2
HETATM    2  C   UNL     1      11.225   5.809  -4.194  1.00  0.00     0.000 C 
BRANCH   2   3
HETATM    3  C   UNL     1      10.717   4.651  -3.353  1.00  0.00     0.000 C 
BRANCH   3   4
HETATM    4  C   UNL     1       9.195   4.624  -3.354  1.00  0.00     0.000 C 
BRANCH   4   5
HETATM    5  C   UNL     1       8.682   3.467  -2.510  1.00  0.00     0.000 C 
BRANCH   5   6
HETATM    6  C   UNL     1       7.161   3.446  -2.514  1.00  0.00     0.000 C 
BRANCH   6   7
HETATM    7  C   UNL     1       6.640   2.287  -1.671  1.00  0.00     0.000 C 
BRANCH   7   8
HETATM    8  C   UNL     1       5.119   2.265  -1.678  1.00  0.00     0.000 C 
BRANCH   8   9
HETATM    9  C   UNL     1       4.594   1.108  -0.835  1.00  0.00     0.000 C 
BRANCH   9  10
HETATM   10  C   UNL     1       3.069   1.087  -0.845  1.00  0.00    -0.000 C 
BRANCH  10  11
HETATM   11  C   UNL     1       2.532  -0.067  -0.005  1.00  0.00    -0.005 C 
HETATM   12  C   UNL     1       1.013  -0.087  -0.014  1.00  0.00     0.005 C 
ENDBRANCH  10  11
ENDBRANCH   9  10
ENDBRANCH   8   9
ENDBRANCH   7   8
ENDBRANCH   6   7
ENDBRANCH   5   6
ENDBRANCH   4   5
ENDBRANCH   3   4
ENDBRANCH   2   3
ENDBRANCH   1   2
BRANCH   1  13
HETATM   13  C   UNL     1      13.248   7.006  -5.043  1.00  0.00     0.000 C 
BRANCH  13  14
HETATM   14  C   UNL     1      14.771   7.030  -5.042  1.00  0.00     0.002 C 
BRANCH  14  15
HETATM   15  C   UNL     1      15.337   8.175  -5.879  1.00  0.00     0.027 C 
BRANCH  15  16
HETATM   16  C   UNL     1      16.873   8.106  -5.806  1.00  0.00     0.180 C 
BRANCH  16  17
HETATM   17  O   UNL     1      17.472   9.146  -6.480  1.00  0.00    -0.297 OA
BRANCH  17  18
HETATM   18  P   UNL     1      19.000   9.354  -6.793  1.00  0.00     0.390 P 
HETATM   19  O   UNL     1      19.057  10.587  -7.691  1.00  0.00    -0.632 OA
BRANCH  18  20
HETATM   20  O   UNL     1      19.071   9.915  -5.288  1.00  0.00    -0.307 OA
HETATM   21  H   UNL     1      18.891  10.853  -5.260  1.00  0.00     0.222 HD
ENDBRANCH  18  20
BRANCH  18  22
HETATM   22  O   UNL     1      20.539   9.094  -6.546  1.00  0.00    -0.307 OA
HETATM   23  H   UNL     1      20.894   9.960  -6.823  1.00  0.00     0.222 HD
ENDBRANCH  18  22
ENDBRANCH  17  18
ENDBRANCH  16  17
ENDBRANCH  15  16
ENDBRANCH  14  15
ENDBRANCH  13  14
ENDBRANCH   1  13
TORSDOF 18
