REMARK  17 active torsions:
REMARK  status: ('A' for Active; 'I' for Inactive)
REMARK    1  A    between atoms: C_2  and  C_3 
REMARK    2  A    between atoms: C_3  and  C_4 
REMARK    3  A    between atoms: C_4  and  C_5 
REMARK    4  A    between atoms: C_5  and  C_6 
REMARK    5  A    between atoms: C_6  and  C_7 
REMARK    6  A    between atoms: C_7  and  C_8 
REMARK    7  A    between atoms: C_8  and  C_9 
REMARK    8  A    between atoms: C_9  and  C_10 
REMARK    9  A    between atoms: C_10  and  C_11 
REMARK   10  A    between atoms: C_11  and  C_12 
REMARK   11  A    between atoms: C_12  and  C_13 
REMARK   12  A    between atoms: C_13  and  C_14 
REMARK   13  A    between atoms: C_14  and  C_15 
REMARK   14  A    between atoms: C_15  and  C_16 
REMARK   15  A    between atoms: C_16  and  N_17 
REMARK   16  A    between atoms: N_17  and  C_20 
REMARK   17  A    between atoms: C_20  and  C_21 
ROOT
HETATM    1  C   UNL     1      12.690  -5.057   5.097  1.00  0.00     0.000 C 
ENDROOT
BRANCH   1   2
HETATM    2  C   UNL     1      11.171  -5.052   5.096  1.00  0.00     0.000 C 
BRANCH   2   3
HETATM    3  C   UNL     1      10.672  -4.019   4.097  1.00  0.00     0.000 C 
BRANCH   3   4
HETATM    4  C   UNL     1       9.155  -3.984   4.087  1.00  0.00     0.000 C 
BRANCH   4   5
HETATM    5  C   UNL     1       8.661  -2.970   3.069  1.00  0.00     0.000 C 
BRANCH   5   6
HETATM    6  C   UNL     1       7.142  -2.953   3.050  1.00  0.00     0.000 C 
BRANCH   6   7
HETATM    7  C   UNL     1       6.632  -1.950   2.030  1.00  0.00     0.000 C 
BRANCH   7   8
HETATM    8  C   UNL     1       5.110  -1.947   2.015  1.00  0.00     0.000 C 
BRANCH   8   9
HETATM    9  C   UNL     1       4.588  -0.943   0.997  1.00  0.00     0.000 C 
BRANCH   9  10
HETATM   10  C   UNL     1       3.065  -0.940   0.985  1.00  0.00    -0.000 C 
BRANCH  10  11
HETATM   11  C   UNL     1       2.530   0.062  -0.030  1.00  0.00    -0.005 C 
HETATM   12  C   UNL     1       1.012   0.064  -0.040  1.00  0.00     0.005 C 
ENDBRANCH  10  11
ENDBRANCH   9  10
ENDBRANCH   8   9
ENDBRANCH   7   8
ENDBRANCH   6   7
ENDBRANCH   5   6
ENDBRANCH   4   5
ENDBRANCH   3   4
ENDBRANCH   2   3
ENDBRANCH   1   2
BRANCH   1  13
HETATM   13  C   UNL     1      13.242  -6.078   6.085  1.00  0.00     0.000 C 
BRANCH  13  14
HETATM   14  C   UNL     1      14.768  -6.024   6.167  1.00  0.00     0.002 C 
BRANCH  14  15
HETATM   15  C   UNL     1      15.342  -4.651   6.536  1.00  0.00     0.028 C 
BRANCH  15  16
HETATM   16  C   UNL     1      14.803  -4.109   7.866  1.00  0.00     0.237 C 
BRANCH  16  17
HETATM   17  N   UNL     1      15.306  -2.687   8.160  1.00  0.00    -0.065 N 
HETATM   18  C   UNL     1      16.803  -2.574   8.133  1.00  0.00     0.272 C 
HETATM   19  C   UNL     1      14.645  -1.677   7.226  1.00  0.00     0.272 C 
BRANCH  17  20
HETATM   20  C   UNL     1      14.812  -2.323   9.636  1.00  0.00     0.349 C 
BRANCH  20  21
HETATM   21  C   UNL     1      13.275  -2.299   9.872  1.00  0.00     0.199 C 
HETATM   22  O   UNL     1      12.788  -3.410  10.221  1.00  0.00    -0.647 OA
HETATM   23  O   UNL     1      12.725  -1.207   9.555  1.00  0.00    -0.647 OA
ENDBRANCH  20  21
ENDBRANCH  17  20
ENDBRANCH  16  17
ENDBRANCH  15  16
ENDBRANCH  14  15
ENDBRANCH  13  14
ENDBRANCH   1  13
TORSDOF 17
