REMARK  15 active torsions:
REMARK  status: ('A' for Active; 'I' for Inactive)
REMARK    1  A    between atoms: C_2  and  C_3 
REMARK    2  A    between atoms: C_3  and  C_4 
REMARK    3  A    between atoms: C_4  and  C_5 
REMARK    4  A    between atoms: C_5  and  C_6 
REMARK    5  A    between atoms: C_6  and  C_7 
REMARK    6  A    between atoms: C_7  and  C_8 
REMARK    7  A    between atoms: C_8  and  C_9 
REMARK    8  A    between atoms: C_9  and  C_10 
REMARK    9  A    between atoms: C_10  and  C_11 
REMARK   10  A    between atoms: C_11  and  C_12 
REMARK   11  A    between atoms: C_12  and  C_13 
REMARK   12  A    between atoms: C_13  and  C_14 
REMARK   13  A    between atoms: C_14  and  C_15 
REMARK   14  A    between atoms: C_15  and  C_16 
REMARK   15  A    between atoms: C_16  and  O_17 
ROOT
HETATM    1  C   UNL     1       9.137  -4.610   3.258  1.00  0.00     0.000 C 
ENDROOT
BRANCH   1   2
HETATM    2  C   UNL     1       8.621  -3.450   2.423  1.00  0.00     0.000 C 
BRANCH   2   3
HETATM    3  C   UNL     1       7.100  -3.441   2.417  1.00  0.00     0.000 C 
BRANCH   3   4
HETATM    4  C   UNL     1       6.583  -2.281   1.580  1.00  0.00     0.000 C 
BRANCH   4   5
HETATM    5  C   UNL     1       5.062  -2.269   1.574  1.00  0.00     0.000 C 
BRANCH   5   6
HETATM    6  C   UNL     1       4.541  -1.109   0.736  1.00  0.00     0.000 C 
BRANCH   6   7
HETATM    7  C   UNL     1       3.017  -1.097   0.731  1.00  0.00    -0.000 C 
BRANCH   7   8
HETATM    8  C   UNL     1       2.482   0.059  -0.106  1.00  0.00    -0.005 C 
HETATM    9  C   UNL     1       0.964   0.067  -0.110  1.00  0.00     0.005 C 
ENDBRANCH   7   8
ENDBRANCH   6   7
ENDBRANCH   5   6
ENDBRANCH   4   5
ENDBRANCH   3   4
ENDBRANCH   2   3
ENDBRANCH   1   2
BRANCH   1  10
HETATM   10  C   UNL     1      10.658  -4.620   3.265  1.00  0.00     0.000 C 
BRANCH  10  11
HETATM   11  C   UNL     1      11.174  -5.781   4.102  1.00  0.00     0.000 C 
BRANCH  11  12
HETATM   12  C   UNL     1      12.695  -5.791   4.111  1.00  0.00     0.000 C 
BRANCH  12  13
HETATM   13  C   UNL     1      13.213  -6.953   4.946  1.00  0.00     0.000 C 
BRANCH  13  14
HETATM   14  C   UNL     1      14.738  -6.965   4.954  1.00  0.00     0.002 C 
BRANCH  14  15
HETATM   15  C   UNL     1      15.270  -8.122   5.790  1.00  0.00     0.026 C 
BRANCH  15  16
HETATM   16  C   UNL     1      16.790  -8.136   5.797  1.00  0.00     0.164 C 
BRANCH  16  17
HETATM   17  O   UNL     1      17.256  -9.222   6.585  1.00  0.00    -0.401 OA
HETATM   18  H   UNL     1      16.900  -9.106   7.483  1.00  0.00     0.209 HD
ENDBRANCH  16  17
ENDBRANCH  15  16
ENDBRANCH  14  15
ENDBRANCH  13  14
ENDBRANCH  12  13
ENDBRANCH  11  12
ENDBRANCH  10  11
ENDBRANCH   1  10
TORSDOF 15
