REMARK  11 active torsions:
REMARK  status: ('A' for Active; 'I' for Inactive)
REMARK    1  A    between atoms: C_2  and  C_4 
REMARK    2  A    between atoms: C_4  and  C_5 
REMARK    3  A    between atoms: C_5  and  C_6 
REMARK    4  A    between atoms: C_6  and  C_7 
REMARK    5  A    between atoms: C_7  and  C_9 
REMARK    6  A    between atoms: C_24  and  O_26 
REMARK    7  A    between atoms: O_26  and  C_27 
REMARK    8  A    between atoms: C_27  and  C_29 
REMARK    9  A    between atoms: C_29  and  C_30 
REMARK   10  A    between atoms: C_30  and  C_31 
REMARK   11  A    between atoms: C_31  and  O_33 
ROOT
HETATM    1  C   UNL     1       5.063   5.630   3.844  1.00  0.00    -0.002 C 
HETATM    2  C   UNL     1       5.242   4.945   5.414  1.00  0.00     0.006 C 
HETATM    3  C   UNL     1       3.768   4.859   5.965  1.00  0.00     0.006 C 
HETATM    4  C   UNL     1       2.966   5.166   4.702  1.00  0.00    -0.001 C 
HETATM    5  C   UNL     1       3.681   6.411   4.167  1.00  0.00    -0.036 C 
HETATM    6  C   UNL     1       2.724   7.006   3.130  1.00  0.00     0.010 C 
HETATM    7  C   UNL     1       3.368   6.733   1.845  1.00  0.00     0.007 C 
HETATM    8  C   UNL     1       3.354   5.207   1.794  1.00  0.00     0.003 C 
HETATM    9  C   UNL     1       3.289   4.120   3.523  1.00  0.00    -0.001 C 
HETATM   10  C   UNL     1       4.297   2.378   3.434  1.00  0.00     0.033 C 
HETATM   11  C   UNL     1       5.298   2.070   1.830  1.00  0.00    -0.023 C 
HETATM   12  C   UNL     1       5.242   2.884   0.583  1.00  0.00    -0.072 C 
HETATM   13  C   UNL     1       4.457   4.592   0.317  1.00  0.00    -0.017 C 
HETATM   14  C   UNL     1       3.707   4.431  -1.071  1.00  0.00     0.016 C 
HETATM   15  C   UNL     1       4.712   3.935  -2.140  1.00  0.00     0.034 C 
HETATM   16  C   UNL     1       4.906   2.445  -1.944  1.00  0.00     0.136 C 
HETATM   17  C   UNL     1       5.628   2.087  -0.645  1.00  0.00     0.067 C 
HETATM   18  C   UNL     1       5.304   5.935  -0.140  1.00  0.00     0.020 C 
HETATM   19  C   UNL     1       4.032   7.600   5.076  1.00  0.00     0.016 C 
ENDROOT
BRANCH  16  20
HETATM   20  O   UNL     1       5.501   1.831  -3.099  1.00  0.00    -0.316 OA
BRANCH  20  21
HETATM   21  C   UNL     1       6.816   2.029  -3.351  1.00  0.00     0.259 C 
HETATM   22  O   UNL     1       7.588   2.726  -2.709  1.00  0.00    -0.265 OA
BRANCH  21  23
HETATM   23  C   UNL     1       7.207   1.238  -4.557  1.00  0.00     0.121 C 
BRANCH  23  24
HETATM   24  C   UNL     1       8.584   0.642  -4.329  1.00  0.00     0.119 C 
BRANCH  24  25
HETATM   25  C   UNL     1       9.009  -0.175  -5.514  1.00  0.00     0.139 C 
HETATM   26  O   UNL     1       8.345  -0.349  -6.523  1.00  0.00    -0.650 OA
BRANCH  25  27
HETATM   27  O   UNL     1      10.235  -0.719  -5.343  1.00  0.00    -0.776 OA
HETATM   28  H   UNL     1      10.647  -0.487  -4.489  1.00  0.00     0.167 HD
ENDBRANCH  25  27
ENDBRANCH  24  25
ENDBRANCH  23  24
ENDBRANCH  21  23
ENDBRANCH  20  21
ENDBRANCH  16  20
BRANCH   1  29
HETATM   29  C   UNL     1       5.072   4.267   2.505  1.00  0.00    -0.014 C 
HETATM   30  C   UNL     1       6.678   4.494   1.875  1.00  0.00     0.010 C 
BRANCH  29  31
HETATM   31  C   UNL     1       3.350   3.163   1.824  1.00  0.00     0.005 C 
BRANCH  31  32
HETATM   32  C   UNL     1       1.660   2.896   2.630  1.00  0.00     0.001 C 
BRANCH  32  33
HETATM   33  C   UNL     1       1.478   2.135   4.046  1.00  0.00     0.004 C 
BRANCH  33  34
HETATM   34  C   UNL     1       0.235   2.229   5.009  1.00  0.00    -0.023 C 
HETATM   35  C   UNL     1      -0.283   3.618   5.378  1.00  0.00     0.009 C 
HETATM   36  C   UNL     1      -0.939   1.307   4.683  1.00  0.00     0.009 C 
ENDBRANCH  33  34
ENDBRANCH  32  33
ENDBRANCH  31  32
ENDBRANCH  29  31
ENDBRANCH   1  29
TORSDOF 11
