REMARK  7 active torsions:
REMARK  status: ('A' for Active; 'I' for Inactive)
REMARK    1  A    between atoms: C_7  and  N_15 
REMARK    2  A    between atoms: C_10  and  S_11 
REMARK    3  A    between atoms: N_17  and  C_19 
REMARK    4  A    between atoms: C_20  and  O_37 
REMARK    5  A    between atoms: C_25  and  S_33 
REMARK    6  A    between atoms: C_27  and  S_29 
REMARK    7  A    between atoms: S_29  and  O_32 
ROOT
HETATM    1 NA   UNL     3       1.156  -0.901   3.119  1.00  0.00     0.000 Na
ENDROOT
TORSDOF 7
