REMARK  6 active torsions:
REMARK  status: ('A' for Active; 'I' for Inactive)
REMARK    1  A    between atoms: C_9  and  N_15 
REMARK    2  A    between atoms: C_10  and  S_11 
REMARK    3  A    between atoms: S_11  and  O_13 
REMARK    4  A    between atoms: N_17  and  C_19 
REMARK    5  A    between atoms: C_21  and  C_29 
REMARK    6  A    between atoms: C_29  and  O_31 
ROOT
HETATM    1  N   UNL     1      -3.754   1.443  -0.490  1.00  0.00    -0.299 N 
ATOM      2  HN  UNL     1      -3.834   2.374  -0.898  1.00  0.00     0.187 HD
HETATM    3  N   UNL     1      -4.732   0.821  -0.007  1.00  0.00    -0.296 N 
ATOM      4  HN  UNL     1      -4.687  -0.130   0.359  1.00  0.00     0.187 HD
ENDROOT
BRANCH   1   5
HETATM    5  C   UNL     1      -2.526   0.731  -0.416  1.00  0.00     0.072 A 
HETATM    6  C   UNL     1      -2.477  -0.642  -0.146  1.00  0.00     0.033 A 
HETATM    7  C   UNL     1      -1.269  -1.339  -0.102  1.00  0.00     0.014 A 
HETATM    8  C   UNL     1      -0.054  -0.692  -0.370  1.00  0.00    -0.024 A 
HETATM    9  C   UNL     1      -0.045   0.683  -0.672  1.00  0.00     0.000 A 
HETATM   10  C   UNL     1       1.148  -1.418  -0.317  1.00  0.00     0.012 A 
HETATM   11  C   UNL     1       1.212   1.275  -0.977  1.00  0.00     0.014 A 
HETATM   12  C   UNL     1      -1.293   1.383  -0.616  1.00  0.00     0.127 A 
HETATM   13  C   UNL     1       2.407   0.549  -0.884  1.00  0.00     0.001 A 
HETATM   14  C   UNL     1       2.373  -0.777  -0.558  1.00  0.00     0.001 A 
BRANCH  12  15
HETATM   15  S   UNL     1      -1.230   3.154  -0.312  1.00  0.00     0.328 S 
HETATM   16  O   UNL     1      -1.327   3.840  -1.568  1.00  0.00    -0.191 OA
HETATM   17  O   UNL     1      -0.012   3.330   0.509  1.00  0.00    -0.191 OA
BRANCH  15  18
HETATM   18  O   UNL     1      -2.251   3.386   0.709  1.00  0.00    -0.086 OA
HETATM   19 CA   UNL     2      -1.409   3.309   2.587  1.00  0.00     0.000 Ca
ENDBRANCH  15  18
ENDBRANCH  12  15
ENDBRANCH   1   5
BRANCH   3  20
HETATM   20  C   UNL     1      -5.921   1.623  -0.037  1.00  0.00     0.110 A 
HETATM   21  C   UNL     1      -6.049   2.724   0.901  1.00  0.00     0.217 A 
HETATM   22  C   UNL     1      -7.285   3.459   0.746  1.00  0.00     0.090 A 
HETATM   23  O   UNL     1      -5.155   3.022   1.794  1.00  0.00    -0.285 OA
HETATM   24  C   UNL     1      -8.297   3.086  -0.156  1.00  0.00     0.034 A 
HETATM   25  C   UNL     1      -8.174   1.974  -0.985  1.00  0.00    -0.022 A 
HETATM   26  C   UNL     1      -9.236   1.609  -1.842  1.00  0.00     0.012 A 
HETATM   27  C   UNL     1      -6.978   1.229  -0.948  1.00  0.00     0.006 A 
HETATM   28  C   UNL     1      -9.134   0.499  -2.677  1.00  0.00     0.001 A 
HETATM   29  C   UNL     1      -7.967  -0.258  -2.659  1.00  0.00     0.001 A 
HETATM   30  C   UNL     1      -6.912   0.104  -1.817  1.00  0.00     0.015 A 
BRANCH  22  31
HETATM   31  C   UNL     1      -7.593   4.705   1.546  1.00  0.00     0.180 C 
HETATM   32  O   UNL     1      -8.667   5.283   1.516  1.00  0.00    -0.646 OA
BRANCH  31  33
HETATM   33  O   UNL     1      -6.550   5.159   2.283  1.00  0.00    -0.773 OA
HETATM   34  H   UNL     1      -5.828   4.477   2.174  1.00  0.00     0.167 HD
ENDBRANCH  31  33
ENDBRANCH  22  31
ENDBRANCH   3  20
TORSDOF 6
