REMARK  4 active torsions:
REMARK  status: ('A' for Active; 'I' for Inactive)
REMARK    1  A    between atoms: C_9  and  O_25 
REMARK    2  A    between atoms: C_10  and  N_11 
REMARK    3  A    between atoms: N_13  and  C_15 
REMARK    4  A    between atoms: C_18  and  N_21 
ROOT
HETATM    1  N   UNL     1       1.350  -2.543   0.194  1.00  0.00    -0.297 N 
ATOM      2  HN  UNL     1       0.848  -3.135   0.856  1.00  0.00     0.187 HD
HETATM    3  N   UNL     1       2.240  -2.969  -0.573  1.00  0.00    -0.299 N 
ATOM      4  HN  UNL     1       2.726  -2.381  -1.250  1.00  0.00     0.187 HD
ENDROOT
BRANCH   1   5
HETATM    5  C   UNL     1       1.108  -1.152   0.050  1.00  0.00     0.092 A 
HETATM    6  C   UNL     1      -0.242  -0.694   0.013  1.00  0.00     0.005 A 
HETATM    7  C   UNL     1      -1.356  -1.568   0.018  1.00  0.00     0.014 A 
HETATM    8  C   UNL     1      -0.508   0.701  -0.022  1.00  0.00    -0.024 A 
HETATM    9  C   UNL     1      -2.667  -1.087   0.005  1.00  0.00     0.001 A 
HETATM   10  C   UNL     1      -2.907   0.280  -0.017  1.00  0.00     0.001 A 
HETATM   11  C   UNL     1      -1.832   1.169  -0.033  1.00  0.00     0.012 A 
HETATM   12  C   UNL     1       0.556   1.613  -0.029  1.00  0.00     0.015 A 
HETATM   13  C   UNL     1       1.875   1.171   0.007  1.00  0.00     0.040 A 
HETATM   14  C   UNL     1       2.146  -0.196   0.056  1.00  0.00     0.094 A 
BRANCH  14  15
HETATM   15  O   UNL     1       3.454  -0.598   0.153  1.00  0.00    -0.358 OA
HETATM   16  H   UNL     1       4.036   0.164   0.004  1.00  0.00     0.217 HD
ENDBRANCH  14  15
ENDBRANCH   1   5
BRANCH   3  17
HETATM   17  C   UNL     1       2.506  -4.352  -0.408  1.00  0.00     0.070 A 
HETATM   18  C   UNL     1       3.244  -5.041  -1.390  1.00  0.00     0.064 A 
HETATM   19  C   UNL     1       3.502  -6.416  -1.287  1.00  0.00     0.062 A 
HETATM   20 CL   UNL     1       3.868  -4.216  -2.779  1.00  0.00    -0.082 Cl
HETATM   21  C   UNL     1       3.029  -7.122  -0.178  1.00  0.00     0.104 A 
HETATM   22  C   UNL     1       2.323  -6.462   0.832  1.00  0.00     0.038 A 
HETATM   23  C   UNL     1       2.075  -5.089   0.716  1.00  0.00     0.035 A 
BRANCH  21  24
HETATM   24  N   UNL     1       3.272  -8.566  -0.073  1.00  0.00    -0.116 N 
HETATM   25  O   UNL     1       3.901  -9.111  -0.990  1.00  0.00    -0.532 OA
HETATM   26  O   UNL     1       2.828  -9.153   0.924  1.00  0.00    -0.532 OA
ENDBRANCH  21  24
ENDBRANCH   3  17
TORSDOF 4
