REMARK  3 active torsions:
REMARK  status: ('A' for Active; 'I' for Inactive)
REMARK    1  A    between atoms: C_4  and  C_27 
REMARK    2  A    between atoms: C_5  and  C_7 
REMARK    3  A    between atoms: C_27  and  O_29 
ROOT
HETATM    1 NA   UNL     3      -0.537  -1.538   2.975  1.00  0.00     0.000 Na
ENDROOT
TORSDOF 3
