REMARK  5 active torsions:
REMARK  status: ('A' for Active; 'I' for Inactive)
REMARK    1  A    between atoms: C_5  and  C_6 
REMARK    2  A    between atoms: C_5  and  C_14 
REMARK    3  A    between atoms: C_9  and  N_12 
REMARK    4  A    between atoms: C_17  and  N_20 
REMARK    5  A    between atoms: N_25  and  H_31 
ROOT
HETATM    1  C   UNL     1       0.813   0.068  -0.414  1.00  0.00     0.050 C 
HETATM    2  C   UNL     1       2.306   0.088  -0.267  1.00  0.00    -0.035 C 
HETATM    3  C   UNL     1       3.015   1.234  -0.290  1.00  0.00     0.021 C 
HETATM    4  C   UNL     1       4.476   1.261  -0.141  1.00  0.00    -0.024 C 
HETATM    5  C   UNL     1       5.137   2.428   0.136  1.00  0.00    -0.005 C 
HETATM    6  C   UNL     1       5.176  -0.009  -0.381  1.00  0.00     0.014 C 
HETATM    7  C   UNL     1       4.517  -1.187  -0.364  1.00  0.00     0.030 C 
HETATM    8  C   UNL     1       3.070  -1.173  -0.046  1.00  0.00     0.032 C 
HETATM    9  N   UNL     1       2.526  -2.215   0.482  1.00  0.00    -0.387 N 
HETATM   10  H   UNL     1       3.063  -3.026   0.764  1.00  0.00     0.157 HD
ENDROOT
BRANCH   5  11
HETATM   11  C   UNL     1       6.628   2.481   0.154  1.00  0.00    -0.024 A 
HETATM   12  C   UNL     1       7.329   2.792  -1.019  1.00  0.00     0.021 A 
HETATM   13  C   UNL     1       8.736   2.807  -1.048  1.00  0.00    -0.040 A 
HETATM   14  C   UNL     1       9.455   2.571   0.136  1.00  0.00     0.011 A 
HETATM   15  C   UNL     1       9.435   3.087  -2.352  1.00  0.00     0.050 C 
HETATM   16  C   UNL     1       8.748   2.250   1.303  1.00  0.00     0.024 A 
HETATM   17  C   UNL     1       7.348   2.218   1.320  1.00  0.00     0.014 A 
BRANCH  14  18
HETATM   18  N   UNL     1      10.851   2.412   0.127  1.00  0.00    -0.302 NA
HETATM   19  H   UNL     1      11.326   2.925  -0.607  1.00  0.00     0.124 HD
HETATM   20  H   UNL     1      11.282   2.559   1.035  1.00  0.00     0.124 HD
ENDBRANCH  14  18
ENDBRANCH   5  11
BRANCH   5  21
HETATM   21  C   UNL     1       4.373   3.660   0.492  1.00  0.00    -0.024 A 
HETATM   22  C   UNL     1       3.991   4.590  -0.486  1.00  0.00     0.021 A 
HETATM   23  C   UNL     1       3.283   5.761  -0.138  1.00  0.00    -0.040 A 
HETATM   24  C   UNL     1       2.924   5.981   1.203  1.00  0.00     0.011 A 
HETATM   25  C   UNL     1       2.911   6.740  -1.219  1.00  0.00     0.050 C 
HETATM   26  C   UNL     1       3.338   5.065   2.177  1.00  0.00     0.024 A 
HETATM   27  C   UNL     1       4.038   3.905   1.825  1.00  0.00     0.014 A 
BRANCH  24  28
HETATM   28  N   UNL     1       2.369   7.201   1.625  1.00  0.00    -0.302 NA
HETATM   29  H   UNL     1       1.832   7.685   0.914  1.00  0.00     0.124 HD
HETATM   30  H   UNL     1       1.869   7.138   2.506  1.00  0.00     0.124 HD
ENDBRANCH  24  28
ENDBRANCH   5  21
BRANCH   9  31
HETATM   31  H   UNL     1       1.679  -2.079   1.058  1.00  0.00     0.269 HD
HETATM   32 CL   UNL     2       1.669  -1.078   3.199  1.00  0.00    -0.127 Cl
ENDBRANCH   9  31
TORSDOF 5
