REMARK  3 active torsions:
REMARK  status: ('A' for Active; 'I' for Inactive)
REMARK    1  A    between atoms: C_5  and  N_8 
REMARK    2  A    between atoms: N_8  and  C_9 
REMARK    3  A    between atoms: C_12  and  O_15 
ROOT
HETATM    1  C   UNL     1      -4.293   1.110  -0.528  1.00  0.00     0.048 C 
HETATM    2  C   UNL     1      -4.250   2.067  -1.554  1.00  0.00     0.059 C 
HETATM    3  C   UNL     1      -4.659   3.382  -1.317  1.00  0.00     0.064 C 
HETATM    4  C   UNL     1      -5.335   3.701  -0.140  1.00  0.00     0.081 C 
HETATM    5  C   UNL     1      -5.476   2.744   0.854  1.00  0.00     0.040 C 
HETATM    6  C   UNL     1      -4.898   1.482   0.686  1.00  0.00     0.033 C 
HETATM    7  C   UNL     1      -4.201   4.440  -2.239  1.00  0.00     0.197 C 
HETATM    8  O   UNL     1      -4.590   5.593  -2.101  1.00  0.00    -0.286 OA
HETATM    9  C   UNL     1      -3.226   4.084  -3.285  1.00  0.00     0.029 C 
HETATM   10  C   UNL     1      -2.379   5.045  -3.835  1.00  0.00     0.016 C 
HETATM   11  C   UNL     1      -1.507   4.683  -4.864  1.00  0.00     0.001 C 
HETATM   12  C   UNL     1      -1.535   3.388  -5.388  1.00  0.00     0.001 C 
HETATM   13  C   UNL     1      -2.360   2.421  -4.818  1.00  0.00     0.016 C 
HETATM   14  C   UNL     1      -3.149   2.763  -3.719  1.00  0.00     0.029 C 
HETATM   15  C   UNL     1      -3.778   1.712  -2.908  1.00  0.00     0.196 C 
HETATM   16  O   UNL     1      -3.861   0.559  -3.319  1.00  0.00    -0.286 OA
ENDROOT
BRANCH   1  17
HETATM   17  N   UNL     1      -3.523  -0.086  -0.625  1.00  0.00    -0.355 N 
HETATM   18  H   UNL     1      -3.397  -0.351  -1.611  1.00  0.00     0.166 HD
BRANCH  17  19
HETATM   19  C   UNL     1      -3.702  -1.249   0.160  1.00  0.00     0.032 A 
HETATM   20  C   UNL     1      -4.970  -1.810   0.324  1.00  0.00     0.030 A 
HETATM   21  C   UNL     1      -5.142  -2.956   1.089  1.00  0.00     0.009 A 
HETATM   22  C   UNL     1      -4.040  -3.578   1.683  1.00  0.00    -0.062 A 
HETATM   23  C   UNL     1      -4.222  -4.780   2.561  1.00  0.00     0.048 C 
HETATM   24  C   UNL     1      -2.758  -3.059   1.453  1.00  0.00     0.009 A 
HETATM   25  C   UNL     1      -2.593  -1.909   0.683  1.00  0.00     0.030 A 
ENDBRANCH  17  19
ENDBRANCH   1  17
BRANCH   4  26
HETATM   26  O   UNL     1      -5.847   4.942   0.115  1.00  0.00    -0.360 OA
HETATM   27  H   UNL     1      -5.634   5.527  -0.647  1.00  0.00     0.217 HD
ENDBRANCH   4  26
TORSDOF 3
