REMARK  4 active torsions:
REMARK  status: ('A' for Active; 'I' for Inactive)
REMARK    1  A    between atoms: C_6  and  S_7 
REMARK    2  A    between atoms: S_7  and  O_9 
REMARK    3  A    between atoms: C_11  and  O_29 
REMARK    4  A    between atoms: C_22  and  S_25 
ROOT
HETATM    1 NA   UNL     3       2.175  -0.406   2.975  1.00  0.00     0.000 Na
ENDROOT
TORSDOF 4
