REMARK  12 active torsions:
REMARK  status: ('A' for Active; 'I' for Inactive)
REMARK    1  A    between atoms: C_6  and  O_11 
REMARK    2  A    between atoms: C_7  and  C_8 
REMARK    3  A    between atoms: C_8  and  O_10 
REMARK    4  A    between atoms: C_18  and  O_35 
REMARK    5  A    between atoms: C_19  and  C_24 
REMARK    6  A    between atoms: C_20  and  O_23 
REMARK    7  A    between atoms: C_21  and  O_22 
REMARK    8  A    between atoms: C_25  and  O_34 
REMARK    9  A    between atoms: C_26  and  O_33 
REMARK   10  A    between atoms: C_27  and  O_32 
REMARK   11  A    between atoms: C_28  and  C_30 
REMARK   12  A    between atoms: C_30  and  O_31 
ROOT
HETATM    1  C   UNL     1       0.996  -0.021  -0.025  1.00  0.00     0.050 C 
HETATM    2  C   UNL     1       2.516  -0.007  -0.020  1.00  0.00    -0.027 A 
HETATM    3  C   UNL     1       3.286   1.203  -0.037  1.00  0.00     0.036 A 
HETATM    4  C   UNL     1       4.685   1.164  -0.030  1.00  0.00     0.032 A 
HETATM    5  C   UNL     1       5.345  -0.069  -0.023  1.00  0.00     0.054 A 
HETATM    6  C   UNL     1       4.612  -1.256  -0.015  1.00  0.00     0.084 A 
HETATM    7  C   UNL     1       3.202  -1.264  -0.008  1.00  0.00     0.077 A 
HETATM    8  C   UNL     1       5.533   2.394  -0.026  1.00  0.00     0.197 A 
HETATM    9  O   UNL     1       6.746   2.248  -0.005  1.00  0.00    -0.286 OA
HETATM   10  C   UNL     1       4.897   3.728  -0.063  1.00  0.00     0.068 A 
HETATM   11  C   UNL     1       3.516   3.770  -0.117  1.00  0.00     0.066 A 
HETATM   12  C   UNL     1       2.684   2.553  -0.040  1.00  0.00     0.197 A 
HETATM   13  O   UNL     1       1.474   2.721   0.052  1.00  0.00    -0.286 OA
HETATM   14  C   UNL     1       2.883   5.015  -0.193  1.00  0.00     0.092 A 
HETATM   15  C   UNL     1       3.567   6.259  -0.125  1.00  0.00     0.043 A 
HETATM   16  C   UNL     1       4.949   6.204  -0.069  1.00  0.00     0.111 A 
HETATM   17  C   UNL     1       5.606   4.947  -0.051  1.00  0.00     0.115 A 
ENDROOT
BRANCH  15  18
HETATM   18  C   UNL     1       2.614   7.440  -0.054  1.00  0.00     0.192 C 
HETATM   19  C   UNL     1       1.799   7.367   1.269  1.00  0.00     0.183 C 
HETATM   20  C   UNL     1       0.428   7.954   0.932  1.00  0.00     0.181 C 
HETATM   21  C   UNL     1       0.567   9.391   0.405  1.00  0.00     0.180 C 
HETATM   22  C   UNL     1       1.625   9.459  -0.734  1.00  0.00     0.177 C 
HETATM   23  O   UNL     1       2.916   8.838  -0.323  1.00  0.00    -0.368 OA
BRANCH  19  24
HETATM   24  O   UNL     1       2.448   8.063   2.345  1.00  0.00    -0.390 OA
HETATM   25  H   UNL     1       2.872   8.854   1.978  1.00  0.00     0.210 HD
ENDBRANCH  19  24
BRANCH  20  26
HETATM   26  O   UNL     1      -0.439   7.894   2.060  1.00  0.00    -0.390 OA
HETATM   27  H   UNL     1      -0.015   8.452   2.740  1.00  0.00     0.210 HD
ENDBRANCH  20  26
BRANCH  21  28
HETATM   28  O   UNL     1       0.887  10.264   1.499  1.00  0.00    -0.390 OA
HETATM   29  H   UNL     1       1.817  10.537   1.445  1.00  0.00     0.210 HD
ENDBRANCH  21  28
BRANCH  22  30
HETATM   30  C   UNL     1       1.782  10.894  -1.249  1.00  0.00     0.198 C 
BRANCH  30  31
HETATM   31  O   UNL     1       2.719  10.941  -2.317  1.00  0.00    -0.398 OA
HETATM   32  H   UNL     1       3.559  10.595  -1.969  1.00  0.00     0.209 HD
ENDBRANCH  30  31
ENDBRANCH  22  30
ENDBRANCH  15  18
BRANCH  14  33
HETATM   33  O   UNL     1       1.507   5.094  -0.324  1.00  0.00    -0.359 OA
HETATM   34  H   UNL     1       1.108   4.211  -0.138  1.00  0.00     0.217 HD
ENDBRANCH  14  33
BRANCH  16  35
HETATM   35  O   UNL     1       5.744   7.316  -0.032  1.00  0.00    -0.357 OA
HETATM   36  H   UNL     1       5.181   8.108  -0.120  1.00  0.00     0.217 HD
ENDBRANCH  16  35
BRANCH  17  37
HETATM   37  O   UNL     1       6.976   4.956  -0.004  1.00  0.00    -0.357 OA
HETATM   38  H   UNL     1       7.249   5.894   0.019  1.00  0.00     0.217 HD
ENDBRANCH  17  37
BRANCH   7  39
HETATM   39  C   UNL     1       2.435  -2.578   0.001  1.00  0.00     0.179 C 
HETATM   40  O   UNL     1       1.215  -2.669   0.015  1.00  0.00    -0.646 OA
BRANCH  39  41
HETATM   41  O   UNL     1       3.186  -3.691  -0.004  1.00  0.00    -0.773 OA
HETATM   42  H   UNL     1       4.149  -3.506  -0.012  1.00  0.00     0.167 HD
ENDBRANCH  39  41
ENDBRANCH   7  39
BRANCH   6  43
HETATM   43  O   UNL     1       5.321  -2.432  -0.019  1.00  0.00    -0.360 OA
HETATM   44  H   UNL     1       6.278  -2.230  -0.029  1.00  0.00     0.217 HD
ENDBRANCH   6  43
TORSDOF 12
