REMARK  9 active torsions:
REMARK  status: ('A' for Active; 'I' for Inactive)
REMARK    1  A    between atoms: C_1  and  C_2 
REMARK    2  A    between atoms: C_1  and  C_5 
REMARK    3  A    between atoms: C_2  and  O_4 
REMARK    4  A    between atoms: C_5  and  C_6 
REMARK    5  A    between atoms: C_5  and  C_10 
REMARK    6  A    between atoms: C_5  and  O_13 
REMARK    7  A    between atoms: C_6  and  C_7 
REMARK    8  A    between atoms: C_7  and  O_9 
REMARK    9  A    between atoms: C_10  and  O_12 
ROOT
HETATM    1  C   UNL     1       2.486   0.010   0.064  1.00  0.00     0.161 C 
ENDROOT
BRANCH   1   2
HETATM    2  C   UNL     1       0.967  -0.057   0.283  1.00  0.00     0.159 C 
BRANCH   2   3
HETATM    3  C   UNL     1       0.277  -0.641  -0.915  1.00  0.00     0.142 C 
HETATM    4  O   UNL     1       0.783  -1.527  -1.593  1.00  0.00    -0.650 OA
BRANCH   3   5
HETATM    5  O   UNL     1      -0.952  -0.152  -1.150  1.00  0.00    -0.776 OA
HETATM    6  H   UNL     1      -1.219   0.590  -0.570  1.00  0.00     0.167 HD
ENDBRANCH   3   5
ENDBRANCH   2   3
ENDBRANCH   1   2
BRANCH   1   7
HETATM    7  C   UNL     1       2.990   0.793  -1.151  1.00  0.00     0.159 C 
BRANCH   7   8
HETATM    8  C   UNL     1       2.547   2.232  -1.138  1.00  0.00     0.142 C 
HETATM    9  O   UNL     1       1.371   2.563  -1.156  1.00  0.00    -0.650 OA
BRANCH   8  10
HETATM   10  O   UNL     1       3.557   3.123  -1.128  1.00  0.00    -0.776 OA
HETATM   11  H   UNL     1       4.460   2.759  -1.086  1.00  0.00     0.167 HD
ENDBRANCH   8  10
ENDBRANCH   7   8
ENDBRANCH   1   7
BRANCH   1  12
HETATM   12  C   UNL     1       3.131   0.612   1.320  1.00  0.00     0.176 C 
HETATM   13  O   UNL     1       2.714   1.582   1.929  1.00  0.00    -0.648 OA
BRANCH  12  14
HETATM   14  O   UNL     1       4.279  -0.033   1.650  1.00  0.00    -0.774 OA
HETATM   15  H   UNL     1       4.338  -0.842   1.084  1.00  0.00     0.167 HD
ENDBRANCH  12  14
ENDBRANCH   1  12
BRANCH   1  16
HETATM   16  O   UNL     1       3.047  -1.329  -0.035  1.00  0.00    -0.378 OA
HETATM   17  H   UNL     1       2.497  -1.819  -0.690  1.00  0.00     0.211 HD
ENDBRANCH   1  16
TORSDOF 9
