REMARK  19 active torsions:
REMARK  status: ('A' for Active; 'I' for Inactive)
REMARK    1  A    between atoms: C_2  and  C_3 
REMARK    2  A    between atoms: C_3  and  C_4 
REMARK    3  A    between atoms: C_4  and  C_5 
REMARK    4  A    between atoms: C_5  and  C_6 
REMARK    5  A    between atoms: C_6  and  C_7 
REMARK    6  A    between atoms: C_7  and  C_8 
REMARK    7  A    between atoms: C_8  and  C_9 
REMARK    8  A    between atoms: C_9  and  C_10 
REMARK    9  A    between atoms: C_10  and  C_11 
REMARK   10  A    between atoms: C_11  and  C_12 
REMARK       I    between atoms: C_12  and  N_14 
REMARK   11  A    between atoms: N_14  and  C_15 
REMARK   12  A    between atoms: C_15  and  C_16 
REMARK   13  A    between atoms: C_16  and  C_17 
REMARK   14  A    between atoms: C_17  and  N_18 
REMARK   15  A    between atoms: N_18  and  C_21 
REMARK   16  A    between atoms: C_21  and  C_22 
REMARK   17  A    between atoms: C_22  and  C_23 
REMARK   18  A    between atoms: C_22  and  O_28 
REMARK   19  A    between atoms: C_23  and  S_24 
ROOT
HETATM    1  C   UNL     1      12.753   6.114  -3.504  1.00  0.00     0.217 C 
HETATM    2  O   UNL     1      13.335   5.099  -3.156  1.00  0.00    -0.274 OA
HETATM    3  N   UNL     1      13.407   7.200  -4.038  1.00  0.00    -0.361 N 
HETATM    4  H   UNL     1      12.888   8.040  -4.304  1.00  0.00     0.162 HD
ENDROOT
BRANCH   3   5
HETATM    5  C   UNL     1      14.851   7.209  -4.084  1.00  0.00     0.124 C 
BRANCH   5   6
HETATM    6  C   UNL     1      15.364   6.371  -5.248  1.00  0.00     0.047 C 
BRANCH   6   7
HETATM    7  C   UNL     1      14.936   7.009  -6.569  1.00  0.00     0.238 C 
BRANCH   7   8
HETATM    8  N   UNL     1      15.306   6.149  -7.795  1.00  0.00    -0.072 N 
HETATM    9  C   UNL     1      16.834   6.021  -7.782  1.00  0.00     0.272 C 
HETATM   10  C   UNL     1      14.608   4.799  -7.716  1.00  0.00     0.272 C 
BRANCH   8  11
HETATM   11  C   UNL     1      14.965   6.853  -9.151  1.00  0.00     0.269 C 
BRANCH  11  12
HETATM   12  C   UNL     1      13.482   6.982  -9.577  1.00  0.00     0.160 C 
BRANCH  12  13
HETATM   13  C   UNL     1      12.539   7.838  -8.757  1.00  0.00     0.198 C 
BRANCH  13  14
HETATM   14  S   UNL     1      13.085   9.504  -8.577  1.00  0.00     0.104 S 
HETATM   15  O   UNL     1      13.024   9.974  -9.954  1.00  0.00    -0.595 OA
HETATM   16  O   UNL     1      12.120  10.025  -7.619  1.00  0.00    -0.595 OA
HETATM   17  O   UNL     1      14.433   9.373  -8.039  1.00  0.00    -0.595 OA
ENDBRANCH  13  14
ENDBRANCH  12  13
BRANCH  12  18
HETATM   18  O   UNL     1      13.445   7.373 -10.965  1.00  0.00    -0.393 OA
HETATM   19  H   UNL     1      13.377   8.362 -10.996  1.00  0.00     0.210 HD
ENDBRANCH  12  18
ENDBRANCH  11  12
ENDBRANCH   8  11
ENDBRANCH   7   8
ENDBRANCH   6   7
ENDBRANCH   5   6
ENDBRANCH   3   5
BRANCH   1  20
HETATM   20  C   UNL     1      11.251   6.261  -3.471  1.00  0.00     0.103 C 
BRANCH  20  21
HETATM   21  C   UNL     1      10.699   5.567  -2.235  1.00  0.00     0.009 C 
BRANCH  21  22
HETATM   22  C   UNL     1       9.180   5.649  -2.181  1.00  0.00     0.000 C 
BRANCH  22  23
HETATM   23  C   UNL     1       8.680   4.953  -0.922  1.00  0.00     0.000 C 
BRANCH  23  24
HETATM   24  C   UNL     1       7.162   4.994  -0.841  1.00  0.00     0.000 C 
BRANCH  24  25
HETATM   25  C   UNL     1       6.682   4.300   0.428  1.00  0.00     0.000 C 
BRANCH  25  26
HETATM   26  C   UNL     1       5.162   4.342   0.517  1.00  0.00     0.000 C 
BRANCH  26  27
HETATM   27  C   UNL     1       4.674   3.649   1.784  1.00  0.00     0.000 C 
BRANCH  27  28
HETATM   28  C   UNL     1       3.151   3.696   1.867  1.00  0.00    -0.000 C 
BRANCH  28  29
HETATM   29  C   UNL     1       2.648   3.006   3.132  1.00  0.00    -0.005 C 
HETATM   30  C   UNL     1       1.133   3.055   3.213  1.00  0.00     0.005 C 
ENDBRANCH  28  29
ENDBRANCH  27  28
ENDBRANCH  26  27
ENDBRANCH  25  26
ENDBRANCH  24  25
ENDBRANCH  23  24
ENDBRANCH  22  23
ENDBRANCH  21  22
ENDBRANCH  20  21
ENDBRANCH   1  20
TORSDOF 19
