REMARK  17 active torsions:
REMARK  status: ('A' for Active; 'I' for Inactive)
REMARK    1  A    between atoms: C_2  and  C_3 
REMARK    2  A    between atoms: C_3  and  C_4 
REMARK    3  A    between atoms: C_4  and  N_5 
REMARK       I    between atoms: N_5  and  C_6 
REMARK    4  A    between atoms: C_6  and  C_8 
REMARK    5  A    between atoms: C_8  and  C_10 
REMARK    6  A    between atoms: C_10  and  C_11 
REMARK    7  A    between atoms: C_11  and  C_12 
REMARK    8  A    between atoms: C_11  and  O_34 
REMARK    9  A    between atoms: C_12  and  C_13 
REMARK   10  A    between atoms: C_12  and  N_17 
REMARK   11  A    between atoms: C_13  and  C_14 
REMARK       I    between atoms: N_17  and  C_18 
REMARK   12  A    between atoms: C_18  and  C_20 
REMARK   13  A    between atoms: C_20  and  N_22 
REMARK       I    between atoms: N_22  and  C_23 
REMARK   14  A    between atoms: C_23  and  C_25 
REMARK   15  A    between atoms: C_25  and  C_26 
REMARK   16  A    between atoms: C_25  and  N_30 
REMARK   17  A    between atoms: C_26  and  C_27 
REMARK       I    between atoms: N_30  and  C_31 
ROOT
HETATM    1  N   UNL     1       6.896   4.272   5.795  1.00  0.00    -0.352 N 
HETATM    2  C   UNL     1       6.148   5.400   5.491  1.00  0.00     0.240 C 
HETATM    3  O   UNL     1       6.665   6.452   5.120  1.00  0.00    -0.271 OA
HETATM    4  H   UNL     1       6.380   3.425   6.022  1.00  0.00     0.163 HD
ENDROOT
BRANCH   1   5
HETATM    5  C   UNL     1       8.377   4.163   5.672  1.00  0.00     0.113 C 
BRANCH   5   6
HETATM    6  C   UNL     1       8.833   4.157   4.151  1.00  0.00     0.141 C 
BRANCH   6   7
HETATM    7  C   UNL     1      10.325   3.925   3.829  1.00  0.00     0.047 C 
BRANCH   7   8
HETATM    8  C   UNL     1      10.937   2.555   4.143  1.00  0.00     0.076 C 
HETATM    9  C   UNL     1      12.379   2.481   3.606  1.00  0.00     0.020 C 
BRANCH   8  10
HETATM   10  C   UNL     1      10.121   1.410   3.553  1.00  0.00     0.221 C 
HETATM   11  N   UNL     1       9.982   1.450   2.184  1.00  0.00    -0.361 N 
HETATM   12  H   UNL     1      10.264   2.280   1.685  1.00  0.00     0.162 HD
HETATM   13  O   UNL     1       9.643   0.529   4.259  1.00  0.00    -0.273 OA
BRANCH  11  14
HETATM   14  C   UNL     1       9.295   0.413   1.443  1.00  0.00     0.122 C 
BRANCH  14  15
HETATM   15  C   UNL     1       9.407   0.635  -0.065  1.00  0.00     0.019 C 
BRANCH  15  16
HETATM   16  C   UNL     1      10.851   0.555  -0.571  1.00  0.00    -0.003 C 
HETATM   17  C   UNL     1      10.929   0.784  -2.073  1.00  0.00     0.005 C 
ENDBRANCH  15  16
ENDBRANCH  14  15
ENDBRANCH  11  14
ENDBRANCH   8  10
ENDBRANCH   7   8
ENDBRANCH   6   7
BRANCH   6  18
HETATM   18  O   UNL     1       8.537   5.386   3.476  1.00  0.00    -0.393 OA
HETATM   19  H   UNL     1       8.755   6.130   4.067  1.00  0.00     0.210 HD
ENDBRANCH   6  18
ENDBRANCH   5   6
BRANCH   5  20
HETATM   20  C   UNL     1       9.132   5.222   6.516  1.00  0.00     0.031 C 
BRANCH  20  21
HETATM   21  C   UNL     1       8.803   5.365   8.023  1.00  0.00    -0.021 C 
HETATM   22  C   UNL     1       9.017   4.095   8.846  1.00  0.00     0.009 C 
HETATM   23  C   UNL     1       9.685   6.483   8.605  1.00  0.00     0.009 C 
ENDBRANCH  20  21
ENDBRANCH   5  20
ENDBRANCH   1   5
BRANCH   2  24
HETATM   24  C   UNL     1       4.605   5.255   5.664  1.00  0.00     0.172 C 
HETATM   25  C   UNL     1       3.955   6.630   5.819  1.00  0.00     0.042 C 
BRANCH  24  26
HETATM   26  N   UNL     1       3.972   4.560   4.539  1.00  0.00    -0.346 N 
HETATM   27  C   UNL     1       3.662   3.215   4.583  1.00  0.00     0.241 C 
HETATM   28  O   UNL     1       3.896   2.543   5.576  1.00  0.00    -0.271 OA
HETATM   29  H   UNL     1       3.789   5.084   3.691  1.00  0.00     0.163 HD
BRANCH  27  30
HETATM   30  C   UNL     1       2.890   2.662   3.355  1.00  0.00     0.177 C 
BRANCH  30  31
HETATM   31  C   UNL     1       3.306   1.191   3.151  1.00  0.00     0.038 C 
BRANCH  31  32
HETATM   32  C   UNL     1       2.703   0.456   1.938  1.00  0.00    -0.020 C 
HETATM   33  C   UNL     1       3.060   1.091   0.592  1.00  0.00     0.009 C 
HETATM   34  C   UNL     1       3.170  -1.005   1.940  1.00  0.00     0.009 C 
ENDBRANCH  31  32
ENDBRANCH  30  31
BRANCH  30  35
HETATM   35  N   UNL     1       1.451   2.790   3.622  1.00  0.00    -0.348 N 
HETATM   36  C   UNL     1       0.530   2.999   2.624  1.00  0.00     0.214 C 
HETATM   37  O   UNL     1       0.828   3.173   1.449  1.00  0.00    -0.274 OA
HETATM   38  C   UNL     1      -0.911   2.985   3.072  1.00  0.00     0.117 C 
HETATM   39  H   UNL     1       1.131   2.570   4.557  1.00  0.00     0.163 HD
ENDBRANCH  30  35
ENDBRANCH  27  30
ENDBRANCH  24  26
ENDBRANCH   2  24
TORSDOF 17
