REMARK  0 active torsions:
REMARK  status: ('A' for Active; 'I' for Inactive)
ROOT
HETATM    1  C   UNL     1       1.100  -0.160   1.553  1.00  0.00    -0.000 C 
HETATM    2 SI   UNL     1       2.726  -0.027   0.616  1.00  0.00     0.000 Si
HETATM    3  O   UNL     1       2.865   1.477  -0.092  1.00  0.00     0.000 OA
HETATM    4 SI   UNL     1       1.977   2.830  -0.490  1.00  0.00     0.000 Si
HETATM    5  O   UNL     1       2.128   3.114  -2.138  1.00  0.00     0.000 OA
HETATM    6 SI   UNL     1       1.428   2.491  -3.533  1.00  0.00     0.000 Si
HETATM    7  O   UNL     1       1.535   0.833  -3.442  1.00  0.00     0.000 OA
HETATM    8 SI   UNL     1       0.619  -0.555  -3.441  1.00  0.00     0.000 Si
HETATM    9  O   UNL     1       1.557  -1.812  -2.852  1.00  0.00     0.000 OA
HETATM   10 SI   UNL     1       2.059  -2.398  -1.363  1.00  0.00     0.000 Si
HETATM   11  O   UNL     1       2.886  -1.200  -0.555  1.00  0.00     0.000 OA
HETATM   12  C   UNL     1       0.585  -2.992  -0.343  1.00  0.00    -0.000 C 
HETATM   13  C   UNL     1       3.134  -3.933  -1.574  1.00  0.00    -0.000 C 
HETATM   14  C   UNL     1      -0.904  -0.409  -2.346  1.00  0.00    -0.000 C 
HETATM   15  C   UNL     1      -0.029  -0.873  -5.173  1.00  0.00    -0.000 C 
HETATM   16  C   UNL     1      -0.372   3.056  -3.634  1.00  0.00    -0.000 C 
HETATM   17  C   UNL     1       2.239   3.143  -5.097  1.00  0.00    -0.000 C 
HETATM   18  C   UNL     1       0.143   2.649  -0.079  1.00  0.00    -0.000 C 
HETATM   19  C   UNL     1       2.526   4.297   0.549  1.00  0.00    -0.000 C 
HETATM   20  C   UNL     1       4.056  -0.284   1.930  1.00  0.00    -0.000 C 
ENDROOT
TORSDOF 0
