REMARK  13 active torsions:
REMARK  status: ('A' for Active; 'I' for Inactive)
REMARK    1  A    between atoms: C_2  and  C_3 
REMARK    2  A    between atoms: C_3  and  C_4 
REMARK    3  A    between atoms: C_4  and  O_5 
REMARK    4  A    between atoms: O_5  and  C_6 
REMARK    5  A    between atoms: C_6  and  C_8 
REMARK    6  A    between atoms: C_8  and  C_9 
REMARK    7  A    between atoms: C_9  and  C_10 
REMARK    8  A    between atoms: C_10  and  C_11 
REMARK    9  A    between atoms: C_11  and  C_12 
REMARK   10  A    between atoms: C_12  and  O_14 
REMARK   11  A    between atoms: O_14  and  C_15 
REMARK   12  A    between atoms: C_15  and  C_16 
REMARK   13  A    between atoms: C_16  and  C_17 
ROOT
HETATM    1  C   UNL     1       8.498  -4.384  -1.181  1.00  0.00     0.010 C 
ENDROOT
BRANCH   1   2
HETATM    2  C   UNL     1       6.966  -4.305  -1.173  1.00  0.00     0.111 C 
BRANCH   2   3
HETATM    3  C   UNL     1       6.496  -2.905  -0.809  1.00  0.00     0.258 C 
HETATM    4  O   UNL     1       7.222  -1.974  -0.510  1.00  0.00    -0.265 OA
BRANCH   3   5
HETATM    5  O   UNL     1       5.134  -2.881  -0.745  1.00  0.00    -0.321 OA
BRANCH   5   6
HETATM    6  C   UNL     1       4.624  -2.435   0.522  1.00  0.00     0.178 C 
BRANCH   6   7
HETATM    7  C   UNL     1       3.830  -1.141   0.402  1.00  0.00     0.026 C 
BRANCH   7   8
HETATM    8  C   UNL     1       3.265  -0.704   1.757  1.00  0.00    -0.002 C 
HETATM    9  C   UNL     1       2.485   0.597   1.646  1.00  0.00     0.005 C 
ENDBRANCH   7   8
ENDBRANCH   6   7
ENDBRANCH   5   6
ENDBRANCH   3   5
ENDBRANCH   2   3
ENDBRANCH   1   2
BRANCH   1  10
HETATM   10  C   UNL     1       9.018  -5.774  -1.551  1.00  0.00     0.010 C 
BRANCH  10  11
HETATM   11  C   UNL     1      10.551  -5.843  -1.582  1.00  0.00     0.111 C 
BRANCH  11  12
HETATM   12  C   UNL     1      11.029  -7.230  -1.959  1.00  0.00     0.258 C 
HETATM   13  O   UNL     1      10.297  -8.196  -2.170  1.00  0.00    -0.265 OA
BRANCH  12  14
HETATM   14  O   UNL     1      12.389  -7.294  -1.912  1.00  0.00    -0.321 OA
BRANCH  14  15
HETATM   15  C   UNL     1      12.887  -8.314  -1.032  1.00  0.00     0.178 C 
BRANCH  15  16
HETATM   16  C   UNL     1      13.683  -9.377  -1.776  1.00  0.00     0.026 C 
BRANCH  16  17
HETATM   17  C   UNL     1      14.243 -10.431  -0.816  1.00  0.00    -0.002 C 
HETATM   18  C   UNL     1      15.028 -11.503  -1.556  1.00  0.00     0.005 C 
ENDBRANCH  16  17
ENDBRANCH  15  16
ENDBRANCH  14  15
ENDBRANCH  12  14
ENDBRANCH  11  12
ENDBRANCH  10  11
ENDBRANCH   1  10
TORSDOF 13
