REMARK  20 active torsions:
REMARK  status: ('A' for Active; 'I' for Inactive)
REMARK    1  A    between atoms: C_2  and  C_3 
REMARK    2  A    between atoms: C_3  and  C_4 
REMARK    3  A    between atoms: C_4  and  C_5 
REMARK    4  A    between atoms: C_5  and  C_6 
REMARK    5  A    between atoms: C_5  and  C_8 
REMARK    6  A    between atoms: C_8  and  O_9 
REMARK    7  A    between atoms: O_9  and  C_10 
REMARK    8  A    between atoms: C_10  and  C_12 
REMARK    9  A    between atoms: C_12  and  C_25 
REMARK   10  A    between atoms: C_13  and  C_14 
REMARK   11  A    between atoms: C_16  and  O_23 
REMARK   12  A    between atoms: C_17  and  O_22 
REMARK   13  A    between atoms: C_18  and  O_20 
REMARK   14  A    between atoms: C_25  and  O_27 
REMARK   15  A    between atoms: O_27  and  C_28 
REMARK   16  A    between atoms: C_28  and  C_29 
REMARK   17  A    between atoms: C_29  and  C_30 
REMARK   18  A    between atoms: C_29  and  C_32 
REMARK   19  A    between atoms: C_32  and  C_33 
REMARK   20  A    between atoms: C_33  and  C_34 
ROOT
HETATM    1  C   UNL     1       8.831   1.127  -5.645  1.00  0.00     0.115 C 
HETATM    2  C   UNL     1       7.923   1.438  -6.603  1.00  0.00     0.035 C 
ENDROOT
BRANCH   1   3
HETATM    3  C   UNL     1       8.435   0.825  -4.236  1.00  0.00     0.299 C 
HETATM    4  O   UNL     1       7.405   1.232  -3.708  1.00  0.00    -0.259 OA
BRANCH   3   5
HETATM    5  O   UNL     1       9.404   0.124  -3.579  1.00  0.00    -0.317 OA
BRANCH   5   6
HETATM    6  C   UNL     1       9.489   0.344  -2.154  1.00  0.00     0.183 C 
BRANCH   6   7
HETATM    7  C   UNL     1       9.208  -0.906  -1.291  1.00  0.00     0.010 C 
BRANCH   7   8
HETATM    8  C   UNL     1      10.188  -2.077  -1.573  1.00  0.00     0.007 C 
BRANCH   8   9
HETATM    9  C   UNL     1       9.888  -3.314  -0.707  1.00  0.00     0.000 C 
BRANCH   9  10
HETATM   10  C   UNL     1      10.846  -4.482  -0.940  1.00  0.00    -0.005 C 
HETATM   11  C   UNL     1      10.460  -5.671  -0.066  1.00  0.00     0.005 C 
ENDBRANCH   9  10
ENDBRANCH   8   9
ENDBRANCH   7   8
BRANCH   7  12
HETATM   12  C   UNL     1       9.169  -0.506   0.210  1.00  0.00     0.002 C 
HETATM   13  C   UNL     1      10.492  -0.011   0.787  1.00  0.00     0.005 C 
ENDBRANCH   7  12
ENDBRANCH   6   7
ENDBRANCH   5   6
ENDBRANCH   3   5
ENDBRANCH   1   3
BRANCH   1  14
HETATM   14  C   UNL     1      10.281   1.335  -5.963  1.00  0.00     0.299 C 
HETATM   15  O   UNL     1      11.131   1.583  -5.118  1.00  0.00    -0.259 OA
BRANCH  14  16
HETATM   16  O   UNL     1      10.517   1.403  -7.309  1.00  0.00    -0.317 OA
BRANCH  16  17
HETATM   17  C   UNL     1      11.341   2.517  -7.695  1.00  0.00     0.183 C 
BRANCH  17  18
HETATM   18  C   UNL     1      12.724   2.143  -8.262  1.00  0.00     0.010 C 
BRANCH  18  19
HETATM   19  C   UNL     1      12.649   1.152  -9.448  1.00  0.00     0.002 C 
HETATM   20  C   UNL     1      11.912   1.657 -10.682  1.00  0.00     0.005 C 
ENDBRANCH  18  19
BRANCH  18  21
HETATM   21  C   UNL     1      13.514   3.421  -8.658  1.00  0.00     0.007 C 
BRANCH  21  22
HETATM   22  C   UNL     1      13.782   4.369  -7.482  1.00  0.00     0.000 C 
BRANCH  22  23
HETATM   23  C   UNL     1      14.532   5.631  -7.909  1.00  0.00    -0.005 C 
HETATM   24  C   UNL     1      14.724   6.571  -6.727  1.00  0.00     0.005 C 
ENDBRANCH  22  23
ENDBRANCH  21  22
ENDBRANCH  18  21
ENDBRANCH  17  18
ENDBRANCH  16  17
ENDBRANCH  14  16
ENDBRANCH   1  14
BRANCH   2  25
HETATM   25  C   UNL     1       6.452   1.450  -6.536  1.00  0.00    -0.029 A 
HETATM   26  C   UNL     1       5.746   2.605  -6.159  1.00  0.00     0.051 A 
HETATM   27  C   UNL     1       4.343   2.612  -6.135  1.00  0.00     0.104 A 
HETATM   28  C   UNL     1       3.654   1.440  -6.466  1.00  0.00     0.133 A 
HETATM   29  C   UNL     1       4.341   0.315  -6.938  1.00  0.00     0.104 A 
HETATM   30  C   UNL     1       5.740   0.320  -6.947  1.00  0.00     0.051 A 
BRANCH  27  31
HETATM   31  O   UNL     1       3.756   3.767  -5.680  1.00  0.00    -0.353 OA
HETATM   32  C   UNL     1       2.573   4.186  -6.366  1.00  0.00     0.210 C 
ENDBRANCH  27  31
BRANCH  28  33
HETATM   33  O   UNL     1       2.319   1.331  -6.189  1.00  0.00    -0.356 OA
HETATM   34  H   UNL     1       2.256   1.506  -5.231  1.00  0.00     0.218 HD
ENDBRANCH  28  33
BRANCH  29  35
HETATM   35  O   UNL     1       3.771  -0.867  -7.338  1.00  0.00    -0.353 OA
HETATM   36  C   UNL     1       2.496  -0.754  -7.967  1.00  0.00     0.210 C 
ENDBRANCH  29  35
ENDBRANCH   2  25
TORSDOF 20
