REMARK  19 active torsions:
REMARK  status: ('A' for Active; 'I' for Inactive)
REMARK    1  A    between atoms: C_2  and  C_3 
REMARK    2  A    between atoms: C_3  and  C_4 
REMARK    3  A    between atoms: C_4  and  C_5 
REMARK    4  A    between atoms: C_5  and  C_6 
REMARK    5  A    between atoms: C_5  and  C_8 
REMARK    6  A    between atoms: C_8  and  O_9 
REMARK    7  A    between atoms: O_9  and  C_10 
REMARK    8  A    between atoms: C_10  and  C_12 
REMARK    9  A    between atoms: C_12  and  C_13 
REMARK   10  A    between atoms: C_13  and  C_14 
REMARK   11  A    between atoms: C_14  and  C_15 
REMARK   12  A    between atoms: C_15  and  C_16 
REMARK   13  A    between atoms: C_16  and  O_18 
REMARK   14  A    between atoms: O_18  and  C_19 
REMARK   15  A    between atoms: C_19  and  C_20 
REMARK   16  A    between atoms: C_20  and  C_21 
REMARK   17  A    between atoms: C_20  and  C_23 
REMARK   18  A    between atoms: C_23  and  C_24 
REMARK   19  A    between atoms: C_24  and  C_25 
ROOT
HETATM    1  C   UNL     1      10.421   1.374   5.659  1.00  0.00     0.010 C 
ENDROOT
BRANCH   1   2
HETATM    2  C   UNL     1       8.895   1.360   5.546  1.00  0.00     0.111 C 
BRANCH   2   3
HETATM    3  C   UNL     1       8.451   1.129   4.119  1.00  0.00     0.258 C 
HETATM    4  O   UNL     1       9.203   1.027   3.160  1.00  0.00    -0.265 OA
BRANCH   3   5
HETATM    5  O   UNL     1       7.089   1.144   4.050  1.00  0.00    -0.321 OA
BRANCH   5   6
HETATM    6  C   UNL     1       6.540   1.397   2.745  1.00  0.00     0.183 C 
BRANCH   6   7
HETATM    7  C   UNL     1       6.547   0.176   1.807  1.00  0.00     0.010 C 
BRANCH   7   8
HETATM    8  C   UNL     1       5.698  -0.983   2.380  1.00  0.00     0.007 C 
BRANCH   8   9
HETATM    9  C   UNL     1       5.737  -2.234   1.495  1.00  0.00     0.000 C 
BRANCH   9  10
HETATM   10  C   UNL     1       4.925  -3.392   2.073  1.00  0.00    -0.005 C 
HETATM   11  C   UNL     1       5.010  -4.609   1.163  1.00  0.00     0.005 C 
ENDBRANCH   9  10
ENDBRANCH   8   9
ENDBRANCH   7   8
BRANCH   7  12
HETATM   12  C   UNL     1       6.150   0.603   0.375  1.00  0.00     0.002 C 
HETATM   13  C   UNL     1       4.748   1.181   0.228  1.00  0.00     0.005 C 
ENDBRANCH   7  12
ENDBRANCH   6   7
ENDBRANCH   5   6
ENDBRANCH   3   5
ENDBRANCH   2   3
ENDBRANCH   1   2
BRANCH   1  14
HETATM   14  C   UNL     1      10.887   1.718   7.075  1.00  0.00     0.010 C 
BRANCH  14  15
HETATM   15  C   UNL     1      12.414   1.707   7.174  1.00  0.00     0.111 C 
BRANCH  15  16
HETATM   16  C   UNL     1      12.899   2.144   8.530  1.00  0.00     0.258 C 
HETATM   17  O   UNL     1      12.196   2.507   9.465  1.00  0.00    -0.265 OA
BRANCH  16  18
HETATM   18  O   UNL     1      14.266   2.237   8.511  1.00  0.00    -0.321 OA
BRANCH  18  19
HETATM   19  C   UNL     1      14.740   3.506   8.976  1.00  0.00     0.183 C 
BRANCH  19  20
HETATM   20  C   UNL     1      15.547   3.430  10.282  1.00  0.00     0.010 C 
BRANCH  20  21
HETATM   21  C   UNL     1      16.732   2.439  10.198  1.00  0.00     0.002 C 
HETATM   22  C   UNL     1      17.798   2.782   9.165  1.00  0.00     0.005 C 
ENDBRANCH  20  21
BRANCH  20  23
HETATM   23  C   UNL     1      16.023   4.844  10.704  1.00  0.00     0.007 C 
BRANCH  23  24
HETATM   24  C   UNL     1      14.868   5.822  10.954  1.00  0.00     0.000 C 
BRANCH  24  25
HETATM   25  C   UNL     1      15.357   7.217  11.338  1.00  0.00    -0.005 C 
HETATM   26  C   UNL     1      14.180   8.164  11.525  1.00  0.00     0.005 C 
ENDBRANCH  24  25
ENDBRANCH  23  24
ENDBRANCH  20  23
ENDBRANCH  19  20
ENDBRANCH  18  19
ENDBRANCH  16  18
ENDBRANCH  15  16
ENDBRANCH  14  15
ENDBRANCH   1  14
TORSDOF 19
