REMARK  31 active torsions:
REMARK  status: ('A' for Active; 'I' for Inactive)
REMARK    1  A    between atoms: C_2  and  C_3 
REMARK    2  A    between atoms: C_3  and  C_4 
REMARK    3  A    between atoms: C_4  and  C_5 
REMARK    4  A    between atoms: C_5  and  C_6 
REMARK    5  A    between atoms: C_6  and  C_7 
REMARK    6  A    between atoms: C_10  and  C_34 
REMARK    7  A    between atoms: C_11  and  C_19 
REMARK    8  A    between atoms: C_12  and  C_13 
REMARK    9  A    between atoms: C_13  and  C_14 
REMARK   10  A    between atoms: C_14  and  C_15 
REMARK   11  A    between atoms: C_15  and  C_16 
REMARK   12  A    between atoms: C_16  and  C_17 
REMARK   13  A    between atoms: C_20  and  C_21 
REMARK   14  A    between atoms: C_21  and  C_22 
REMARK   15  A    between atoms: C_22  and  C_23 
REMARK   16  A    between atoms: C_23  and  C_24 
REMARK   17  A    between atoms: C_24  and  C_25 
REMARK   18  A    between atoms: C_25  and  C_26 
REMARK   19  A    between atoms: C_26  and  C_27 
REMARK   20  A    between atoms: C_27  and  C_28 
REMARK   21  A    between atoms: C_28  and  O_30 
REMARK   22  A    between atoms: O_30  and  C_31 
REMARK   23  A    between atoms: C_34  and  C_35 
REMARK   24  A    between atoms: C_35  and  C_36 
REMARK   25  A    between atoms: C_36  and  C_37 
REMARK   26  A    between atoms: C_37  and  C_38 
REMARK   27  A    between atoms: C_38  and  C_39 
REMARK   28  A    between atoms: C_39  and  C_40 
REMARK   29  A    between atoms: C_40  and  C_41 
REMARK   30  A    between atoms: C_41  and  O_43 
REMARK   31  A    between atoms: O_43  and  C_44 
ROOT
HETATM    1  C   UNL     1       7.179  -2.930  -2.948  1.00  0.00     0.012 C 
HETATM    2  C   UNL     1       7.664  -4.190  -2.266  1.00  0.00    -0.025 C 
HETATM    3  C   UNL     1       7.382  -5.429  -2.694  1.00  0.00    -0.025 C 
HETATM    4  C   UNL     1       6.573  -5.737  -3.938  1.00  0.00     0.016 C 
HETATM    5  C   UNL     1       6.414  -4.475  -4.838  1.00  0.00     0.020 C 
HETATM    6  C   UNL     1       6.003  -3.248  -3.941  1.00  0.00     0.001 C 
ENDROOT
BRANCH   5   7
HETATM    7  C   UNL     1       7.666  -4.191  -5.644  1.00  0.00    -0.025 C 
HETATM    8  C   UNL     1       7.727  -4.143  -6.981  1.00  0.00    -0.030 C 
BRANCH   8   9
HETATM    9  C   UNL     1       9.013  -3.892  -7.706  1.00  0.00     0.027 C 
BRANCH   9  10
HETATM   10  C   UNL     1       8.919  -2.628  -8.550  1.00  0.00     0.004 C 
BRANCH  10  11
HETATM   11  C   UNL     1      10.246  -2.369  -9.257  1.00  0.00     0.000 C 
BRANCH  11  12
HETATM   12  C   UNL     1      10.163  -1.115 -10.114  1.00  0.00     0.000 C 
BRANCH  12  13
HETATM   13  C   UNL     1      11.484  -0.854 -10.832  1.00  0.00     0.000 C 
BRANCH  13  14
HETATM   14  C   UNL     1      11.364   0.401 -11.684  1.00  0.00     0.010 C 
BRANCH  14  15
HETATM   15  C   UNL     1      12.652   0.719 -12.434  1.00  0.00     0.111 C 
BRANCH  15  16
HETATM   16  C   UNL     1      12.461   1.966 -13.265  1.00  0.00     0.259 C 
HETATM   17  O   UNL     1      11.425   2.611 -13.337  1.00  0.00    -0.265 OA
BRANCH  16  18
HETATM   18  O   UNL     1      13.615   2.266 -13.923  1.00  0.00    -0.317 OA
BRANCH  18  19
HETATM   19  C   UNL     1      13.546   3.440 -14.751  1.00  0.00     0.123 C 
HETATM   20  C   UNL     1      13.733   4.687 -13.890  1.00  0.00     0.040 C 
HETATM   21  C   UNL     1      14.648   3.334 -15.798  1.00  0.00     0.040 C 
ENDBRANCH  18  19
ENDBRANCH  16  18
ENDBRANCH  15  16
ENDBRANCH  14  15
ENDBRANCH  13  14
ENDBRANCH  12  13
ENDBRANCH  11  12
ENDBRANCH  10  11
ENDBRANCH   9  10
ENDBRANCH   8   9
ENDBRANCH   5   7
BRANCH   4  22
HETATM   22  C   UNL     1       7.099  -6.962  -4.705  1.00  0.00     0.009 C 
BRANCH  22  23
HETATM   23  C   UNL     1       6.974  -8.230  -3.859  1.00  0.00     0.001 C 
BRANCH  23  24
HETATM   24  C   UNL     1       7.457  -9.458  -4.610  1.00  0.00     0.000 C 
BRANCH  24  25
HETATM   25  C   UNL     1       7.379 -10.673  -3.695  1.00  0.00     0.000 C 
BRANCH  25  26
HETATM   26  C   UNL     1       7.871 -11.922  -4.412  1.00  0.00     0.000 C 
BRANCH  26  27
HETATM   27  C   UNL     1       7.782 -13.124  -3.484  1.00  0.00     0.010 C 
BRANCH  27  28
HETATM   28  C   UNL     1       8.265 -14.399  -4.164  1.00  0.00     0.111 C 
BRANCH  28  29
HETATM   29  C   UNL     1       8.173 -15.559  -3.204  1.00  0.00     0.259 C 
HETATM   30  O   UNL     1       7.802 -15.481  -2.045  1.00  0.00    -0.265 OA
BRANCH  29  31
HETATM   31  O   UNL     1       8.564 -16.709  -3.826  1.00  0.00    -0.317 OA
BRANCH  31  32
HETATM   32  C   UNL     1       8.504 -17.885  -3.001  1.00  0.00     0.123 C 
HETATM   33  C   UNL     1       7.074 -18.417  -2.969  1.00  0.00     0.040 C 
HETATM   34  C   UNL     1       9.453 -18.913  -3.600  1.00  0.00     0.040 C 
ENDBRANCH  31  32
ENDBRANCH  29  31
ENDBRANCH  28  29
ENDBRANCH  27  28
ENDBRANCH  26  27
ENDBRANCH  25  26
ENDBRANCH  24  25
ENDBRANCH  23  24
ENDBRANCH  22  23
ENDBRANCH   4  22
BRANCH   6  35
HETATM   35  C   UNL     1       4.616  -3.585  -3.305  1.00  0.00     0.006 C 
BRANCH  35  36
HETATM   36  C   UNL     1       3.819  -2.477  -2.621  1.00  0.00     0.000 C 
BRANCH  36  37
HETATM   37  C   UNL     1       3.660  -1.211  -3.447  1.00  0.00     0.000 C 
BRANCH  37  38
HETATM   38  C   UNL     1       2.864  -1.483  -4.716  1.00  0.00    -0.000 C 
BRANCH  38  39
HETATM   39  C   UNL     1       2.727  -0.228  -5.569  1.00  0.00    -0.005 C 
HETATM   40  C   UNL     1       1.925  -0.530  -6.820  1.00  0.00     0.005 C 
ENDBRANCH  38  39
ENDBRANCH  37  38
ENDBRANCH  36  37
ENDBRANCH  35  36
ENDBRANCH   6  35
BRANCH   1  41
HETATM   41  C   UNL     1       6.910  -1.798  -1.942  1.00  0.00     0.009 C 
BRANCH  41  42
HETATM   42  C   UNL     1       8.078  -1.384  -1.039  1.00  0.00     0.001 C 
BRANCH  42  43
HETATM   43  C   UNL     1       9.357  -0.886  -1.718  1.00  0.00     0.000 C 
BRANCH  43  44
HETATM   44  C   UNL     1      10.396  -0.631  -0.620  1.00  0.00    -0.000 C 
BRANCH  44  45
HETATM   45  C   UNL     1      11.732  -0.111  -1.136  1.00  0.00    -0.005 C 
HETATM   46  C   UNL     1      12.697   0.102   0.024  1.00  0.00     0.005 C 
ENDBRANCH  44  45
ENDBRANCH  43  44
ENDBRANCH  42  43
ENDBRANCH  41  42
ENDBRANCH   1  41
TORSDOF 31
