REMARK  13 active torsions:
REMARK  status: ('A' for Active; 'I' for Inactive)
REMARK    1  A    between atoms: C_2  and  O_4 
REMARK    2  A    between atoms: O_4  and  C_5 
REMARK    3  A    between atoms: C_5  and  C_7 
REMARK    4  A    between atoms: C_7  and  C_8 
REMARK    5  A    between atoms: C_8  and  C_9 
REMARK    6  A    between atoms: C_9  and  C_10 
REMARK    7  A    between atoms: C_10  and  C_11 
REMARK    8  A    between atoms: C_11  and  C_12 
REMARK    9  A    between atoms: C_12  and  C_13 
REMARK   10  A    between atoms: C_13  and  C_14 
REMARK   11  A    between atoms: C_14  and  C_15 
REMARK   12  A    between atoms: C_15  and  O_17 
REMARK   13  A    between atoms: O_17  and  C_18 
ROOT
HETATM    1  C   UNL     1       8.342  -0.248  -4.465  1.00  0.00     0.000 C 
ENDROOT
BRANCH   1   2
HETATM    2  C   UNL     1       6.810  -0.249  -4.459  1.00  0.00     0.000 C 
BRANCH   2   3
HETATM    3  C   UNL     1       6.290  -0.190  -3.027  1.00  0.00     0.010 C 
BRANCH   3   4
HETATM    4  C   UNL     1       4.762  -0.187  -2.943  1.00  0.00     0.111 C 
BRANCH   4   5
HETATM    5  C   UNL     1       4.335  -0.128  -1.492  1.00  0.00     0.259 C 
HETATM    6  O   UNL     1       5.109  -0.079  -0.550  1.00  0.00    -0.265 OA
BRANCH   5   7
HETATM    7  O   UNL     1       2.970  -0.130  -1.384  1.00  0.00    -0.317 OA
BRANCH   7   8
HETATM    8  C   UNL     1       2.484  -0.041  -0.028  1.00  0.00     0.123 C 
HETATM    9  C   UNL     1       2.546   1.409   0.435  1.00  0.00     0.040 C 
HETATM   10  C   UNL     1       1.037  -0.535   0.033  1.00  0.00     0.040 C 
ENDBRANCH   7   8
ENDBRANCH   5   7
ENDBRANCH   4   5
ENDBRANCH   3   4
ENDBRANCH   2   3
ENDBRANCH   1   2
BRANCH   1  11
HETATM   11  C   UNL     1       8.895  -0.307  -5.885  1.00  0.00     0.000 C 
BRANCH  11  12
HETATM   12  C   UNL     1      10.426  -0.307  -5.890  1.00  0.00     0.000 C 
BRANCH  12  13
HETATM   13  C   UNL     1      10.947  -0.368  -7.321  1.00  0.00     0.010 C 
BRANCH  13  14
HETATM   14  C   UNL     1      12.475  -0.371  -7.405  1.00  0.00     0.111 C 
BRANCH  14  15
HETATM   15  C   UNL     1      12.901  -0.434  -8.856  1.00  0.00     0.259 C 
HETATM   16  O   UNL     1      12.128  -0.471  -9.800  1.00  0.00    -0.265 OA
BRANCH  15  17
HETATM   17  O   UNL     1      14.262  -0.453  -8.965  1.00  0.00    -0.317 OA
BRANCH  17  18
HETATM   18  C   UNL     1      14.758  -0.536 -10.318  1.00  0.00     0.123 C 
HETATM   19  C   UNL     1      14.727   0.840 -10.980  1.00  0.00     0.040 C 
HETATM   20  C   UNL     1      16.194  -1.048 -10.273  1.00  0.00     0.040 C 
ENDBRANCH  17  18
ENDBRANCH  15  17
ENDBRANCH  14  15
ENDBRANCH  13  14
ENDBRANCH  12  13
ENDBRANCH  11  12
ENDBRANCH   1  11
TORSDOF 13
