REMARK  16 active torsions:
REMARK  status: ('A' for Active; 'I' for Inactive)
REMARK    1  A    between atoms: C_2  and  C_3 
REMARK    2  A    between atoms: C_3  and  C_4 
REMARK    3  A    between atoms: C_4  and  C_5 
REMARK    4  A    between atoms: C_5  and  C_6 
REMARK    5  A    between atoms: C_6  and  C_7 
REMARK    6  A    between atoms: C_7  and  C_8 
REMARK    7  A    between atoms: C_8  and  C_9 
REMARK    8  A    between atoms: C_9  and  C_10 
REMARK    9  A    between atoms: C_10  and  C_11 
REMARK   10  A    between atoms: C_11  and  C_12 
REMARK   11  A    between atoms: C_12  and  C_13 
REMARK   12  A    between atoms: C_13  and  C_14 
REMARK   13  A    between atoms: C_14  and  C_15 
REMARK   14  A    between atoms: C_15  and  C_16 
REMARK   15  A    between atoms: C_16  and  C_18 
REMARK   16  A    between atoms: C_19  and  O_30 
ROOT
HETATM    1  C   UNL     1      14.850  -8.916  -6.208  1.00  0.00     0.162 C 
HETATM    2  O   UNL     1      13.796  -9.358  -6.623  1.00  0.00    -0.292 OA
ENDROOT
BRANCH   1   3
HETATM    3  C   UNL     1      15.330  -7.510  -6.580  1.00  0.00     0.084 C 
BRANCH   3   4
HETATM    4  C   UNL     1      14.796  -6.424  -5.656  1.00  0.00     0.008 C 
BRANCH   4   5
HETATM    5  C   UNL     1      13.278  -6.402  -5.679  1.00  0.00     0.000 C 
BRANCH   5   6
HETATM    6  C   UNL     1      12.746  -5.325  -4.753  1.00  0.00     0.000 C 
BRANCH   6   7
HETATM    7  C   UNL     1      11.225  -5.308  -4.779  1.00  0.00     0.000 C 
BRANCH   7   8
HETATM    8  C   UNL     1      10.701  -4.226  -3.848  1.00  0.00     0.000 C 
BRANCH   8   9
HETATM    9  C   UNL     1       9.180  -4.196  -3.868  1.00  0.00     0.000 C 
BRANCH   9  10
HETATM   10  C   UNL     1       8.664  -3.113  -2.934  1.00  0.00     0.000 C 
BRANCH  10  11
HETATM   11  C   UNL     1       7.143  -3.082  -2.949  1.00  0.00     0.000 C 
BRANCH  11  12
HETATM   12  C   UNL     1       6.626  -1.997  -2.016  1.00  0.00     0.000 C 
BRANCH  12  13
HETATM   13  C   UNL     1       5.105  -1.965  -2.028  1.00  0.00     0.000 C 
BRANCH  13  14
HETATM   14  C   UNL     1       4.584  -0.880  -1.094  1.00  0.00     0.000 C 
BRANCH  14  15
HETATM   15  C   UNL     1       3.060  -0.849  -1.107  1.00  0.00    -0.000 C 
BRANCH  15  16
HETATM   16  C   UNL     1       2.527   0.235  -0.177  1.00  0.00    -0.005 C 
HETATM   17  C   UNL     1       1.009   0.263  -0.193  1.00  0.00     0.005 C 
ENDBRANCH  15  16
ENDBRANCH  14  15
ENDBRANCH  13  14
ENDBRANCH  12  13
ENDBRANCH  11  12
ENDBRANCH  10  11
ENDBRANCH   9  10
ENDBRANCH   8   9
ENDBRANCH   7   8
ENDBRANCH   6   7
ENDBRANCH   5   6
ENDBRANCH   4   5
ENDBRANCH   3   4
ENDBRANCH   1   3
BRANCH   1  18
HETATM   18  C   UNL     1      15.718  -9.739  -5.310  1.00  0.00     0.044 A 
HETATM   19  C   UNL     1      15.727 -11.144  -5.347  1.00  0.00     0.084 A 
HETATM   20  C   UNL     1      16.610 -11.821  -4.507  1.00  0.00     0.075 A 
HETATM   21  C   UNL     1      17.469 -11.131  -3.657  1.00  0.00     0.079 A 
HETATM   22  C   UNL     1      17.474  -9.738  -3.624  1.00  0.00    -0.024 A 
HETATM   23  O   UNL     1      18.303 -11.918  -2.918  1.00  0.00    -0.340 OA
HETATM   24  C   UNL     1      16.580  -9.053  -4.440  1.00  0.00     0.028 A 
HETATM   25  C   UNL     1      18.406  -8.987  -2.722  1.00  0.00     0.044 C 
HETATM   26  C   UNL     1      19.563  -9.888  -2.308  1.00  0.00     0.042 C 
HETATM   27  C   UNL     1      19.067 -11.280  -1.883  1.00  0.00     0.061 C 
HETATM   28  C   UNL     1      20.274 -12.202  -1.655  1.00  0.00     0.046 C 
HETATM   29  C   UNL     1      18.222 -11.249  -0.602  1.00  0.00     0.046 C 
BRANCH  19  30
HETATM   30  O   UNL     1      14.906 -11.781  -6.238  1.00  0.00    -0.355 OA
HETATM   31  C   UNL     1      14.927 -13.205  -6.271  1.00  0.00     0.210 C 
ENDBRANCH  19  30
ENDBRANCH   1  18
TORSDOF 16
