REMARK  9 active torsions:
REMARK  status: ('A' for Active; 'I' for Inactive)
REMARK    1  A    between atoms: C_2  and  C_3 
REMARK    2  A    between atoms: C_3  and  C_4 
REMARK    3  A    between atoms: C_4  and  C_5 
REMARK    4  A    between atoms: C_5  and  C_6 
REMARK    5  A    between atoms: C_6  and  C_7 
REMARK    6  A    between atoms: C_7  and  C_8 
REMARK    7  A    between atoms: C_8  and  C_9 
REMARK    8  A    between atoms: C_9  and  C_10 
REMARK    9  A    between atoms: C_10  and  C_11 
ROOT
HETATM    1  C   UNL     1       6.613   2.482   1.322  1.00  0.00     0.000 C 
ENDROOT
BRANCH   1   2
HETATM    2  C   UNL     1       5.093   2.471   1.316  1.00  0.00     0.000 C 
BRANCH   2   3
HETATM    3  C   UNL     1       4.576   1.191   0.677  1.00  0.00     0.000 C 
BRANCH   3   4
HETATM    4  C   UNL     1       3.054   1.181   0.671  1.00  0.00    -0.000 C 
BRANCH   4   5
HETATM    5  C   UNL     1       2.530  -0.096   0.034  1.00  0.00    -0.005 C 
HETATM    6  C   UNL     1       1.008  -0.100   0.028  1.00  0.00     0.005 C 
ENDBRANCH   4   5
ENDBRANCH   3   4
ENDBRANCH   2   3
ENDBRANCH   1   2
BRANCH   1   7
HETATM    7  C   UNL     1       7.124   3.759   1.963  1.00  0.00     0.000 C 
BRANCH   7   8
HETATM    8  C   UNL     1       8.646   3.769   1.970  1.00  0.00     0.000 C 
BRANCH   8   9
HETATM    9  C   UNL     1       9.163   5.046   2.613  1.00  0.00     0.000 C 
BRANCH   9  10
HETATM   10  C   UNL     1      10.684   5.054   2.619  1.00  0.00    -0.000 C 
BRANCH  10  11
HETATM   11  C   UNL     1      11.214   6.332   3.260  1.00  0.00    -0.005 C 
HETATM   12  C   UNL     1      12.730   6.336   3.264  1.00  0.00     0.005 C 
ENDBRANCH  10  11
ENDBRANCH   9  10
ENDBRANCH   8   9
ENDBRANCH   7   8
ENDBRANCH   1   7
TORSDOF 9
