REMARK  2 active torsions:
REMARK  status: ('A' for Active; 'I' for Inactive)
REMARK    1  A    between atoms: CA_7  and  C_9 
REMARK    2  A    between atoms: C_9  and  OXT_11 
ROOT
HETATM    1  C   UNL     1       0.946  -0.071   0.063  1.00  0.00     0.088 C 
HETATM    2  C   UNL     1       2.456  -0.013   0.048  1.00  0.00     0.069 C 
HETATM    3  N   UNL     1       3.008   1.138   0.055  1.00  0.00    -0.380 N 
ATOM      4  HN  UNL     1       2.424   1.974   0.084  1.00  0.00     0.160 HD
HETATM    5  C   UNL     1       4.455   1.278   0.023  1.00  0.00     0.123 C 
HETATM    6  C   UNL     1       5.286   0.007  -0.068  1.00  0.00     0.056 C 
HETATM    7  CA  UNL     1       4.562  -1.323   0.053  1.00  0.00     0.182 C 
HETATM    8  N   UNL     1       3.116  -1.198   0.064  1.00  0.00    -0.366 N 
HETATM    9  H   UNL     1       2.591  -2.058  -0.080  1.00  0.00     0.161 HD
ENDROOT
BRANCH   7  10
HETATM   10  C   UNL     1       5.003  -2.038   1.335  1.00  0.00     0.163 C 
HETATM   11  O   UNL     1       5.973  -2.775   1.416  1.00  0.00    -0.648 OA
BRANCH  10  12
HETATM   12  OXT UNL     1       4.203  -1.758   2.395  1.00  0.00    -0.775 OA
HETATM   13  HXT UNL     1       3.489  -1.147   2.109  1.00  0.00     0.167 HD
ENDBRANCH  10  12
ENDBRANCH   7  10
TORSDOF 2
