REMARK  29 active torsions:
REMARK  status: ('A' for Active; 'I' for Inactive)
REMARK    1  A    between atoms: C_3  and  C_5 
REMARK    2  A    between atoms: C_5  and  O_7 
REMARK    3  A    between atoms: O_7  and  C_8 
REMARK    4  A    between atoms: C_9  and  O_76 
REMARK    5  A    between atoms: C_10  and  C_74 
REMARK    6  A    between atoms: C_23  and  O_38 
REMARK    7  A    between atoms: C_24  and  C_36 
REMARK    8  A    between atoms: C_31  and  O_32 
REMARK    9  A    between atoms: C_36  and  O_37 
REMARK   10  A    between atoms: O_38  and  C_39 
REMARK   11  A    between atoms: C_40  and  O_61 
REMARK   12  A    between atoms: C_41  and  O_60 
REMARK   13  A    between atoms: C_42  and  O_48 
REMARK   14  A    between atoms: C_43  and  C_45 
REMARK   15  A    between atoms: C_45  and  O_47 
REMARK   16  A    between atoms: O_48  and  C_49 
REMARK   17  A    between atoms: C_50  and  O_59 
REMARK   18  A    between atoms: C_51  and  O_58 
REMARK   19  A    between atoms: C_52  and  O_57 
REMARK   20  A    between atoms: C_53  and  C_55 
REMARK   21  A    between atoms: C_55  and  O_56 
REMARK   22  A    between atoms: O_61  and  C_62 
REMARK   23  A    between atoms: C_63  and  O_72 
REMARK   24  A    between atoms: C_64  and  O_71 
REMARK   25  A    between atoms: C_65  and  O_70 
REMARK   26  A    between atoms: C_66  and  C_68 
REMARK   27  A    between atoms: C_68  and  O_69 
REMARK   28  A    between atoms: C_74  and  O_75 
REMARK   29  A    between atoms: O_76  and  C_77 
ROOT
HETATM    1  C   UNL     1       8.386   2.839  -0.950  1.00  0.00     0.170 C 
HETATM    2  C   UNL     1       8.658   1.303  -0.491  1.00  0.00     0.176 C 
HETATM    3  C   UNL     1       7.229   0.935  -0.090  1.00  0.00     0.043 C 
HETATM    4  C   UNL     1       6.489   1.118  -1.758  1.00  0.00     0.032 C 
HETATM    5  C   UNL     1       6.613   2.504  -2.548  1.00  0.00     0.021 C 
HETATM    6  C   UNL     1       8.098   2.943  -2.473  1.00  0.00    -0.018 C 
HETATM    7  C   UNL     1       8.854   2.087  -3.535  1.00  0.00     0.018 C 
HETATM    8  C   UNL     1       8.482   4.375  -2.829  1.00  0.00     0.018 C 
HETATM    9  C   UNL     1       5.571   0.094  -2.453  1.00  0.00    -0.069 C 
HETATM   10  C   UNL     1       4.977   0.270  -3.695  1.00  0.00    -0.022 C 
HETATM   11  C   UNL     1       3.561  -0.277  -4.221  1.00  0.00     0.033 C 
HETATM   12  C   UNL     1       3.044  -1.377  -3.300  1.00  0.00     0.007 C 
HETATM   13  C   UNL     1       1.405  -2.265  -2.952  1.00  0.00    -0.035 C 
HETATM   14  C   UNL     1       0.197  -1.615  -2.280  1.00  0.00     0.012 C 
HETATM   15  C   UNL     1       0.207  -1.454  -0.750  1.00  0.00     0.034 C 
HETATM   16  C   UNL     1       1.114  -2.271   0.278  1.00  0.00     0.135 C 
HETATM   17  C   UNL     1       1.938  -3.834  -0.016  1.00  0.00     0.008 C 
HETATM   18  C   UNL     1       1.663  -3.619  -1.826  1.00  0.00     0.007 C 
HETATM   19  C   UNL     1       3.020  -3.665  -2.338  1.00  0.00     0.007 C 
HETATM   20  C   UNL     1       3.364  -2.321  -1.400  1.00  0.00     0.011 C 
HETATM   21  C   UNL     1       3.692  -1.039  -1.951  1.00  0.00    -0.028 C 
HETATM   22  C   UNL     1       5.192  -1.013  -1.523  1.00  0.00    -0.011 C 
HETATM   23  C   UNL     1       5.391  -0.619   0.010  1.00  0.00     0.047 C 
HETATM   24  C   UNL     1       6.888  -0.484   0.338  1.00  0.00     0.133 C 
HETATM   25  C   UNL     1       6.033  -2.382  -1.506  1.00  0.00     0.021 C 
HETATM   26  C   UNL     1       2.989   0.327  -1.502  1.00  0.00     0.016 C 
HETATM   27  C   UNL     1       3.605  -4.640  -0.206  1.00  0.00     0.020 C 
HETATM   28  C   UNL     1       0.882  -2.939  -4.276  1.00  0.00     0.016 C 
ENDROOT
BRANCH  16  29
HETATM   29  O   UNL     1       0.562  -2.097   1.576  1.00  0.00    -0.352 OA
BRANCH  29  30
HETATM   30  C   UNL     1      -0.620  -2.759   1.987  1.00  0.00     0.293 C 
HETATM   31  C   UNL     1      -0.562  -4.274   1.921  1.00  0.00     0.211 C 
HETATM   32  C   UNL     1      -1.138  -4.764   0.615  1.00  0.00     0.184 C 
HETATM   33  C   UNL     1      -2.543  -4.263   0.232  1.00  0.00     0.195 C 
HETATM   34  C   UNL     1      -2.887  -2.919   0.937  1.00  0.00     0.253 C 
HETATM   35  O   UNL     1      -1.764  -2.154   1.404  1.00  0.00    -0.340 OA
BRANCH  31  36
HETATM   36  O   UNL     1      -0.917  -4.996   3.109  1.00  0.00    -0.346 OA
BRANCH  36  37
HETATM   37  C   UNL     1      -2.184  -4.780   3.702  1.00  0.00     0.292 C 
HETATM   38  C   UNL     1      -2.297  -3.450   4.457  1.00  0.00     0.204 C 
HETATM   39  C   UNL     1      -1.233  -3.452   5.555  1.00  0.00     0.183 C 
HETATM   40  C   UNL     1      -1.622  -4.520   6.576  1.00  0.00     0.180 C 
HETATM   41  C   UNL     1      -1.820  -5.887   5.866  1.00  0.00     0.179 C 
HETATM   42  O   UNL     1      -2.497  -5.849   4.597  1.00  0.00    -0.348 OA
BRANCH  38  43
HETATM   43  O   UNL     1      -3.614  -3.302   4.998  1.00  0.00    -0.388 OA
HETATM   44  H   UNL     1      -3.596  -2.439   5.458  1.00  0.00     0.210 HD
ENDBRANCH  38  43
BRANCH  39  45
HETATM   45  O   UNL     1      -1.152  -2.138   6.119  1.00  0.00    -0.390 OA
HETATM   46  H   UNL     1      -0.750  -2.219   7.001  1.00  0.00     0.210 HD
ENDBRANCH  39  45
BRANCH  40  47
HETATM   47  O   UNL     1      -2.799  -4.100   7.284  1.00  0.00    -0.390 OA
HETATM   48  H   UNL     1      -3.540  -4.250   6.646  1.00  0.00     0.210 HD
ENDBRANCH  40  47
BRANCH  41  49
HETATM   49  C   UNL     1      -2.634  -6.865   6.739  1.00  0.00     0.198 C 
BRANCH  49  50
HETATM   50  O   UNL     1      -3.949  -6.388   7.049  1.00  0.00    -0.398 OA
HETATM   51  H   UNL     1      -3.886  -5.909   7.897  1.00  0.00     0.209 HD
ENDBRANCH  49  50
ENDBRANCH  41  49
ENDBRANCH  36  37
ENDBRANCH  31  36
BRANCH  32  52
HETATM   52  O   UNL     1      -0.898  -6.164   0.545  1.00  0.00    -0.390 OA
HETATM   53  H   UNL     1       0.059  -6.315   0.661  1.00  0.00     0.210 HD
ENDBRANCH  32  52
BRANCH  33  54
HETATM   54  O   UNL     1      -3.575  -5.295   0.147  1.00  0.00    -0.347 OA
BRANCH  54  55
HETATM   55  C   UNL     1      -3.239  -6.276  -0.893  1.00  0.00     0.292 C 
HETATM   56  C   UNL     1      -3.628  -5.836  -2.317  1.00  0.00     0.204 C 
HETATM   57  C   UNL     1      -5.060  -6.264  -2.624  1.00  0.00     0.183 C 
HETATM   58  C   UNL     1      -5.235  -7.760  -2.393  1.00  0.00     0.180 C 
HETATM   59  C   UNL     1      -4.864  -8.121  -0.943  1.00  0.00     0.179 C 
HETATM   60  O   UNL     1      -3.579  -7.629  -0.562  1.00  0.00    -0.348 OA
BRANCH  56  61
HETATM   61  O   UNL     1      -2.683  -6.409  -3.249  1.00  0.00    -0.388 OA
HETATM   62  H   UNL     1      -2.830  -7.379  -3.238  1.00  0.00     0.210 HD
ENDBRANCH  56  61
BRANCH  57  63
HETATM   63  O   UNL     1      -5.386  -5.966  -3.986  1.00  0.00    -0.390 OA
HETATM   64  H   UNL     1      -5.020  -6.716  -4.503  1.00  0.00     0.210 HD
ENDBRANCH  57  63
BRANCH  58  65
HETATM   65  O   UNL     1      -4.411  -8.417  -3.381  1.00  0.00    -0.390 OA
HETATM   66  H   UNL     1      -4.101  -9.263  -2.981  1.00  0.00     0.210 HD
ENDBRANCH  58  65
BRANCH  59  67
HETATM   67  C   UNL     1      -4.883  -9.659  -0.746  1.00  0.00     0.198 C 
BRANCH  67  68
HETATM   68  O   UNL     1      -4.131 -10.328  -1.773  1.00  0.00    -0.398 OA
HETATM   69  H   UNL     1      -4.442 -11.252  -1.805  1.00  0.00     0.209 HD
ENDBRANCH  67  68
ENDBRANCH  59  67
ENDBRANCH  54  55
ENDBRANCH  33  54
BRANCH  34  70
HETATM   70  C   UNL     1      -4.116  -2.774   1.846  1.00  0.00     0.172 C 
HETATM   71  O   UNL     1      -4.298  -1.784   2.545  1.00  0.00    -0.648 OA
BRANCH  70  72
HETATM   72  O   UNL     1      -5.036  -3.755   1.764  1.00  0.00    -0.774 OA
HETATM   73  H   UNL     1      -4.779  -4.529   1.218  1.00  0.00     0.167 HD
ENDBRANCH  70  72
ENDBRANCH  34  70
ENDBRANCH  29  30
ENDBRANCH  16  29
BRANCH  17  74
HETATM   74  C   UNL     1       2.821  -3.503   1.466  1.00  0.00     0.176 C 
BRANCH  74  75
HETATM   75  O   UNL     1       2.119  -3.803   2.662  1.00  0.00    -0.400 OA
HETATM   76  H   UNL     1       2.312  -3.065   3.263  1.00  0.00     0.209 HD
ENDBRANCH  74  75
ENDBRANCH  17  74
BRANCH  24  77
HETATM   77  O   UNL     1       7.115  -0.874   1.701  1.00  0.00    -0.395 OA
HETATM   78  H   UNL     1       6.550  -0.324   2.286  1.00  0.00     0.210 HD
ENDBRANCH  24  77
BRANCH   3  79
HETATM   79  C   UNL     1       7.166   1.681   1.350  1.00  0.00     0.179 C 
BRANCH  79  80
HETATM   80  O   UNL     1       5.965   1.500   2.090  1.00  0.00    -0.400 OA
HETATM   81  H   UNL     1       5.493   2.350   2.090  1.00  0.00     0.209 HD
ENDBRANCH  79  80
ENDBRANCH   3  79
BRANCH   2  82
HETATM   82  O   UNL     1       9.054   0.405  -1.597  1.00  0.00    -0.313 OA
BRANCH  82  83
HETATM   83  C   UNL     1       9.812  -0.712  -1.600  1.00  0.00     0.255 C 
HETATM   84  O   UNL     1      10.677  -0.964  -0.780  1.00  0.00    -0.266 OA
HETATM   85  C   UNL     1       9.441  -1.624  -2.774  1.00  0.00     0.126 C 
ENDBRANCH  82  83
ENDBRANCH   2  82
BRANCH   1  86
HETATM   86  O   UNL     1       6.943   3.397  -0.379  1.00  0.00    -0.309 OA
BRANCH  86  87
HETATM   87  C   UNL     1       6.631   4.470   0.286  1.00  0.00     0.289 C 
HETATM   88  O   UNL     1       7.365   5.302   0.711  1.00  0.00    -0.260 OA
BRANCH  87  89
HETATM   89  C   UNL     1       5.052   4.643   0.595  1.00  0.00     0.009 C 
HETATM   90  C   UNL     1       4.089   3.904   0.028  1.00  0.00    -0.018 C 
HETATM   91  C   UNL     1       2.586   4.192   0.095  1.00  0.00     0.036 C 
HETATM   92  C   UNL     1       4.703   5.737   1.568  1.00  0.00     0.054 C 
ENDBRANCH  87  89
ENDBRANCH  86  87
ENDBRANCH   1  86
TORSDOF 29
