REMARK  23 active torsions:
REMARK  status: ('A' for Active; 'I' for Inactive)
REMARK    1  A    between atoms: C_2  and  C_3 
REMARK    2  A    between atoms: C_3  and  C_4 
REMARK    3  A    between atoms: C_4  and  C_5 
REMARK    4  A    between atoms: C_5  and  C_6 
REMARK    5  A    between atoms: C_6  and  C_7 
REMARK    6  A    between atoms: C_7  and  C_8 
REMARK    7  A    between atoms: C_8  and  C_9 
REMARK    8  A    between atoms: C_9  and  C_10 
REMARK    9  A    between atoms: C_10  and  C_11 
REMARK   10  A    between atoms: C_11  and  C_12 
REMARK   11  A    between atoms: C_12  and  C_13 
REMARK   12  A    between atoms: C_13  and  C_14 
REMARK   13  A    between atoms: C_14  and  C_15 
REMARK   14  A    between atoms: C_15  and  C_16 
REMARK   15  A    between atoms: C_16  and  C_17 
REMARK   16  A    between atoms: C_17  and  C_18 
REMARK   17  A    between atoms: C_18  and  O_20 
REMARK   18  A    between atoms: O_20  and  C_21 
REMARK   19  A    between atoms: C_21  and  C_22 
REMARK   20  A    between atoms: C_22  and  C_23 
REMARK   21  A    between atoms: C_22  and  C_25 
REMARK   22  A    between atoms: C_25  and  C_26 
REMARK   23  A    between atoms: C_26  and  C_27 
ROOT
HETATM    1  C   UNL     1      14.778  -6.055  -6.178  1.00  0.00     0.000 C 
ENDROOT
BRANCH   1   2
HETATM    2  C   UNL     1      13.257  -6.040  -6.164  1.00  0.00     0.000 C 
BRANCH   2   3
HETATM    3  C   UNL     1      12.747  -5.031  -5.146  1.00  0.00     0.000 C 
BRANCH   3   4
HETATM    4  C   UNL     1      11.228  -5.021  -5.139  1.00  0.00     0.000 C 
BRANCH   4   5
HETATM    5  C   UNL     1      10.715  -4.014  -4.124  1.00  0.00     0.000 C 
BRANCH   5   6
HETATM    6  C   UNL     1       9.197  -4.007  -4.122  1.00  0.00     0.000 C 
BRANCH   6   7
HETATM    7  C   UNL     1       8.682  -3.001  -3.109  1.00  0.00     0.000 C 
BRANCH   7   8
HETATM    8  C   UNL     1       7.163  -2.995  -3.106  1.00  0.00     0.000 C 
BRANCH   8   9
HETATM    9  C   UNL     1       6.651  -1.985  -2.094  1.00  0.00     0.000 C 
BRANCH   9  10
HETATM   10  C   UNL     1       5.131  -1.973  -2.087  1.00  0.00     0.000 C 
BRANCH  10  11
HETATM   11  C   UNL     1       4.616  -0.961  -1.074  1.00  0.00     0.000 C 
BRANCH  11  12
HETATM   12  C   UNL     1       3.094  -0.951  -1.068  1.00  0.00    -0.000 C 
BRANCH  12  13
HETATM   13  C   UNL     1       2.565   0.057  -0.057  1.00  0.00    -0.005 C 
HETATM   14  C   UNL     1       1.048   0.067  -0.055  1.00  0.00     0.005 C 
ENDBRANCH  12  13
ENDBRANCH  11  12
ENDBRANCH  10  11
ENDBRANCH   9  10
ENDBRANCH   8   9
ENDBRANCH   7   8
ENDBRANCH   6   7
ENDBRANCH   5   6
ENDBRANCH   4   5
ENDBRANCH   3   4
ENDBRANCH   2   3
ENDBRANCH   1   2
BRANCH   1  15
HETATM   15  C   UNL     1      15.301  -7.063  -7.198  1.00  0.00     0.000 C 
BRANCH  15  16
HETATM   16  C   UNL     1      16.824  -7.061  -7.191  1.00  0.00     0.010 C 
BRANCH  16  17
HETATM   17  C   UNL     1      17.423  -8.049  -8.186  1.00  0.00     0.111 C 
BRANCH  17  18
HETATM   18  C   UNL     1      18.938  -7.985  -8.117  1.00  0.00     0.258 C 
HETATM   19  O   UNL     1      19.580  -7.254  -7.394  1.00  0.00    -0.265 OA
BRANCH  18  20
HETATM   20  O   UNL     1      19.466  -8.827  -9.058  1.00  0.00    -0.321 OA
BRANCH  20  21
HETATM   21  C   UNL     1      20.293  -8.158 -10.020  1.00  0.00     0.183 C 
BRANCH  21  22
HETATM   22  C   UNL     1      21.745  -8.663  -9.992  1.00  0.00     0.010 C 
BRANCH  22  23
HETATM   23  C   UNL     1      21.842 -10.187 -10.249  1.00  0.00     0.002 C 
HETATM   24  C   UNL     1      21.321 -10.647 -11.603  1.00  0.00     0.005 C 
ENDBRANCH  22  23
BRANCH  22  25
HETATM   25  C   UNL     1      22.600  -7.877 -11.012  1.00  0.00     0.007 C 
BRANCH  25  26
HETATM   26  C   UNL     1      22.628  -6.372 -10.728  1.00  0.00     0.000 C 
BRANCH  26  27
HETATM   27  C   UNL     1      23.466  -5.603 -11.743  1.00  0.00    -0.005 C 
HETATM   28  C   UNL     1      23.452  -4.117 -11.417  1.00  0.00     0.005 C 
ENDBRANCH  26  27
ENDBRANCH  25  26
ENDBRANCH  22  25
ENDBRANCH  21  22
ENDBRANCH  20  21
ENDBRANCH  18  20
ENDBRANCH  17  18
ENDBRANCH  16  17
ENDBRANCH  15  16
ENDBRANCH   1  15
TORSDOF 23
