REMARK  4 active torsions:
REMARK  status: ('A' for Active; 'I' for Inactive)
REMARK    1  A    between atoms: C_2  and  O_3 
REMARK    2  A    between atoms: O_3  and  C_4 
REMARK    3  A    between atoms: C_4  and  C_6 
REMARK    4  A    between atoms: C_9  and  O_12 
ROOT
HETATM    1  C   UNL     1       4.982   2.878   0.990  1.00  0.00     0.039 A 
HETATM    2  C   UNL     1       4.457   3.543   2.111  1.00  0.00     0.020 A 
HETATM    3  C   UNL     1       4.930   4.808   2.466  1.00  0.00     0.037 A 
HETATM    4  C   UNL     1       5.927   5.400   1.696  1.00  0.00     0.065 A 
HETATM    5  C   UNL     1       6.452   4.754   0.580  1.00  0.00     0.037 A 
HETATM    6  C   UNL     1       5.976   3.493   0.220  1.00  0.00     0.020 A 
ENDROOT
BRANCH   1   7
HETATM    7  C   UNL     1       4.430   1.574   0.540  1.00  0.00     0.293 C 
HETATM    8  O   UNL     1       4.466   1.187  -0.615  1.00  0.00    -0.259 OA
BRANCH   7   9
HETATM    9  O   UNL     1       3.837   0.961   1.591  1.00  0.00    -0.318 OA
BRANCH   9  10
HETATM   10  C   UNL     1       2.869  -0.038   1.254  1.00  0.00     0.174 C 
HETATM   11  C   UNL     1       1.525   0.658   1.141  1.00  0.00     0.034 C 
ENDBRANCH   9  10
ENDBRANCH   7   9
ENDBRANCH   1   7
BRANCH   4  12
HETATM   12  O   UNL     1       6.413   6.636   2.001  1.00  0.00    -0.361 OA
HETATM   13  H   UNL     1       5.959   6.963   2.795  1.00  0.00     0.217 HD
ENDBRANCH   4  12
TORSDOF 4
