REMARK  15 active torsions:
REMARK  status: ('A' for Active; 'I' for Inactive)
REMARK    1  A    between atoms: C_2  and  O_3 
REMARK    2  A    between atoms: O_3  and  C_4 
REMARK    3  A    between atoms: C_4  and  C_5 
REMARK    4  A    between atoms: C_6  and  O_19 
REMARK    5  A    between atoms: C_7  and  O_16 
REMARK    6  A    between atoms: C_8  and  O_13 
REMARK    7  A    between atoms: C_9  and  O_11 
REMARK    8  A    between atoms: O_13  and  C_14 
REMARK    9  A    between atoms: O_16  and  C_17 
REMARK   10  A    between atoms: O_19  and  C_20 
REMARK   11  A    between atoms: C_21  and  O_31 
REMARK   12  A    between atoms: C_22  and  O_30 
REMARK   13  A    between atoms: C_23  and  O_28 
REMARK   14  A    between atoms: C_24  and  C_26 
REMARK   15  A    between atoms: C_26  and  O_27 
ROOT
HETATM    1  C   UNL     1       4.825  -2.291  -0.660  1.00  0.00     0.180 C 
HETATM    2  C   UNL     1       4.865  -3.677   0.079  1.00  0.00     0.187 C 
HETATM    3  C   UNL     1       5.249  -3.404   1.593  1.00  0.00     0.186 C 
HETATM    4  C   UNL     1       6.424  -2.391   1.792  1.00  0.00     0.208 C 
HETATM    5  C   UNL     1       6.344  -1.181   0.822  1.00  0.00     0.291 C 
HETATM    6  O   UNL     1       6.082  -1.615  -0.508  1.00  0.00    -0.348 OA
ENDROOT
BRANCH   2   7
HETATM    7  O   UNL     1       3.616  -4.430  -0.059  1.00  0.00    -0.348 OA
BRANCH   7   8
HETATM    8  C   UNL     1       3.183  -4.642  -1.429  1.00  0.00     0.292 C 
HETATM    9  C   UNL     1       1.776  -5.280  -1.533  1.00  0.00     0.204 C 
HETATM   10  C   UNL     1       1.751  -6.812  -1.469  1.00  0.00     0.183 C 
HETATM   11  C   UNL     1       2.968  -7.517  -2.112  1.00  0.00     0.183 C 
HETATM   12  C   UNL     1       4.264  -6.713  -1.929  1.00  0.00     0.179 C 
HETATM   13  O   UNL     1       4.123  -5.318  -2.247  1.00  0.00    -0.348 OA
BRANCH   9  14
HETATM   14  O   UNL     1       0.856  -4.749  -0.559  1.00  0.00    -0.388 OA
HETATM   15  H   UNL     1       1.372  -4.212   0.072  1.00  0.00     0.210 HD
ENDBRANCH   9  14
BRANCH  10  16
HETATM   16  O   UNL     1       0.504  -7.298  -1.997  1.00  0.00    -0.390 OA
HETATM   17  H   UNL     1      -0.201  -6.772  -1.574  1.00  0.00     0.210 HD
ENDBRANCH  10  16
BRANCH  11  18
HETATM   18  O   UNL     1       2.787  -8.095  -3.414  1.00  0.00    -0.385 OA
HETATM   19  C   UNL     1       2.384  -7.275  -4.495  1.00  0.00     0.202 C 
ENDBRANCH  11  18
BRANCH  12  20
HETATM   20  C   UNL     1       5.417  -7.251  -2.781  1.00  0.00     0.198 C 
BRANCH  20  21
HETATM   21  O   UNL     1       6.617  -6.555  -2.429  1.00  0.00    -0.398 OA
HETATM   22  H   UNL     1       6.438  -5.615  -2.622  1.00  0.00     0.209 HD
ENDBRANCH  20  21
ENDBRANCH  12  20
ENDBRANCH   7   8
ENDBRANCH   2   7
BRANCH   1  23
HETATM   23  C   UNL     1       3.605  -1.409  -0.263  1.00  0.00     0.202 C 
BRANCH  23  24
HETATM   24  O   UNL     1       3.633  -0.114  -0.891  1.00  0.00    -0.389 OA
BRANCH  24  25
HETATM   25  C   UNL     1       2.615   0.732  -0.338  1.00  0.00     0.163 C 
HETATM   26  C   UNL     1       2.559   2.082  -1.037  1.00  0.00     0.033 C 
ENDBRANCH  24  25
ENDBRANCH  23  24
ENDBRANCH   1  23
BRANCH   3  27
HETATM   27  O   UNL     1       5.378  -4.451   2.572  1.00  0.00    -0.381 OA
BRANCH  27  28
HETATM   28  C   UNL     1       5.646  -5.798   2.241  1.00  0.00     0.164 C 
HETATM   29  C   UNL     1       6.987  -6.286   2.766  1.00  0.00     0.033 C 
ENDBRANCH  27  28
ENDBRANCH   3  27
BRANCH   4  30
HETATM   30  O   UNL     1       7.715  -3.023   1.876  1.00  0.00    -0.379 OA
BRANCH  30  31
HETATM   31  C   UNL     1       8.259  -3.560   0.684  1.00  0.00     0.164 C 
HETATM   32  C   UNL     1       9.645  -4.097   0.997  1.00  0.00     0.033 C 
ENDBRANCH  30  31
ENDBRANCH   4  30
BRANCH   5  33
HETATM   33  O   UNL     1       7.548  -0.406   0.861  1.00  0.00    -0.363 OA
HETATM   34  C   UNL     1       7.473   0.734   0.022  1.00  0.00     0.204 C 
ENDBRANCH   5  33
TORSDOF 15
