REMARK  6 active torsions:
REMARK  status: ('A' for Active; 'I' for Inactive)
REMARK    1  A    between atoms: C_2  and  O_3 
REMARK    2  A    between atoms: O_3  and  C_4 
REMARK    3  A    between atoms: C_4  and  C_6 
REMARK    4  A    between atoms: C_7  and  C_8 
REMARK    5  A    between atoms: C_10  and  O_15 
REMARK    6  A    between atoms: C_11  and  O_14 
ROOT
HETATM    1  C   UNL     1       6.658  -2.417   4.086  1.00  0.00    -0.033 A 
HETATM    2  C   UNL     1       6.168  -3.654   4.526  1.00  0.00     0.051 A 
HETATM    3  C   UNL     1       6.588  -4.247   5.732  1.00  0.00     0.102 A 
HETATM    4  C   UNL     1       7.539  -3.572   6.499  1.00  0.00     0.099 A 
HETATM    5  C   UNL     1       8.055  -2.347   6.059  1.00  0.00     0.040 A 
HETATM    6  C   UNL     1       7.627  -1.778   4.862  1.00  0.00     0.014 A 
ENDROOT
BRANCH   1   7
HETATM    7  C   UNL     1       6.207  -1.773   2.845  1.00  0.00     0.017 C 
HETATM    8  C   UNL     1       4.985  -1.945   2.320  1.00  0.00     0.083 C 
BRANCH   8   9
HETATM    9  C   UNL     1       4.561  -1.127   1.168  1.00  0.00     0.282 C 
HETATM   10  O   UNL     1       5.249  -0.299   0.596  1.00  0.00    -0.260 OA
BRANCH   9  11
HETATM   11  O   UNL     1       3.245  -1.380   0.963  1.00  0.00    -0.319 OA
BRANCH  11  12
HETATM   12  C   UNL     1       2.547  -0.393   0.193  1.00  0.00     0.174 C 
HETATM   13  C   UNL     1       2.034   0.671   1.147  1.00  0.00     0.034 C 
ENDBRANCH  11  12
ENDBRANCH   9  11
ENDBRANCH   8   9
ENDBRANCH   1   7
BRANCH   3  14
HETATM   14  O   UNL     1       5.941  -5.429   5.941  1.00  0.00    -0.353 OA
HETATM   15  C   UNL     1       6.173  -6.213   7.091  1.00  0.00     0.210 C 
ENDBRANCH   3  14
BRANCH   4  16
HETATM   16  O   UNL     1       8.057  -3.969   7.697  1.00  0.00    -0.358 OA
HETATM   17  H   UNL     1       7.857  -4.896   7.859  1.00  0.00     0.217 HD
ENDBRANCH   4  16
TORSDOF 6
