REMARK  17 active torsions:
REMARK  status: ('A' for Active; 'I' for Inactive)
REMARK    1  A    between atoms: C_2  and  C_3 
REMARK    2  A    between atoms: C_3  and  C_4 
REMARK    3  A    between atoms: C_4  and  C_5 
REMARK    4  A    between atoms: C_5  and  C_6 
REMARK    5  A    between atoms: C_6  and  C_7 
REMARK    6  A    between atoms: C_7  and  C_8 
REMARK    7  A    between atoms: C_8  and  C_9 
REMARK    8  A    between atoms: C_10  and  C_11 
REMARK    9  A    between atoms: C_11  and  C_12 
REMARK   10  A    between atoms: C_12  and  C_13 
REMARK   11  A    between atoms: C_13  and  C_14 
REMARK   12  A    between atoms: C_14  and  C_15 
REMARK   13  A    between atoms: C_15  and  C_16 
REMARK   14  A    between atoms: C_16  and  C_17 
REMARK   15  A    between atoms: C_17  and  C_18 
REMARK   16  A    between atoms: C_18  and  O_20 
REMARK   17  A    between atoms: O_20  and  C_21 
ROOT
HETATM    1  C   UNL     1      10.972  -5.103   5.344  1.00  0.00     0.027 C 
ENDROOT
BRANCH   1   2
HETATM    2  C   UNL     1      10.455  -4.146   4.319  1.00  0.00    -0.031 C 
HETATM    3  C   UNL     1       9.679  -3.104   4.640  1.00  0.00    -0.031 C 
BRANCH   3   4
HETATM    4  C   UNL     1       9.168  -2.144   3.617  1.00  0.00     0.027 C 
BRANCH   4   5
HETATM    5  C   UNL     1       9.659  -0.734   3.915  1.00  0.00     0.004 C 
BRANCH   5   6
HETATM    6  C   UNL     1       9.132   0.234   2.866  1.00  0.00     0.000 C 
BRANCH   6   7
HETATM    7  C   UNL     1       9.617   1.644   3.162  1.00  0.00     0.000 C 
BRANCH   7   8
HETATM    8  C   UNL     1       9.089   2.613   2.115  1.00  0.00     0.000 C 
BRANCH   8   9
HETATM    9  C   UNL     1       9.572   4.025   2.412  1.00  0.00    -0.000 C 
BRANCH   9  10
HETATM   10  C   UNL     1       9.050   5.002   1.368  1.00  0.00    -0.005 C 
HETATM   11  C   UNL     1       9.535   6.408   1.667  1.00  0.00     0.005 C 
ENDBRANCH   9  10
ENDBRANCH   8   9
ENDBRANCH   7   8
ENDBRANCH   6   7
ENDBRANCH   5   6
ENDBRANCH   4   5
ENDBRANCH   3   4
ENDBRANCH   1   2
BRANCH   1  12
HETATM   12  C   UNL     1      12.494  -5.108   5.354  1.00  0.00     0.004 C 
BRANCH  12  13
HETATM   13  C   UNL     1      13.008  -6.086   6.403  1.00  0.00     0.000 C 
BRANCH  13  14
HETATM   14  C   UNL     1      14.530  -6.101   6.420  1.00  0.00     0.000 C 
BRANCH  14  15
HETATM   15  C   UNL     1      15.047  -7.080   7.470  1.00  0.00     0.000 C 
BRANCH  15  16
HETATM   16  C   UNL     1      16.570  -7.088   7.483  1.00  0.00     0.010 C 
BRANCH  16  17
HETATM   17  C   UNL     1      17.141  -8.047   8.529  1.00  0.00     0.111 C 
BRANCH  17  18
HETATM   18  C   UNL     1      18.648  -8.010   8.497  1.00  0.00     0.258 C 
HETATM   19  O   UNL     1      19.311  -7.331   7.710  1.00  0.00    -0.265 OA
BRANCH  18  20
HETATM   20  O   UNL     1      19.174  -8.921   9.363  1.00  0.00    -0.322 OA
BRANCH  20  21
HETATM   21  C   UNL     1      20.474  -9.399   8.983  1.00  0.00     0.174 C 
HETATM   22  C   UNL     1      20.277 -10.546   8.004  1.00  0.00     0.034 C 
ENDBRANCH  20  21
ENDBRANCH  18  20
ENDBRANCH  17  18
ENDBRANCH  16  17
ENDBRANCH  15  16
ENDBRANCH  14  15
ENDBRANCH  13  14
ENDBRANCH  12  13
ENDBRANCH   1  12
TORSDOF 17
