REMARK  6 active torsions:
REMARK  status: ('A' for Active; 'I' for Inactive)
REMARK    1  A    between atoms: C_2  and  O_12 
REMARK    2  A    between atoms: C_3  and  O_11 
REMARK    3  A    between atoms: C_4  and  O_10 
REMARK    4  A    between atoms: C_5  and  C_7 
REMARK    5  A    between atoms: C_5  and  O_9 
REMARK    6  A    between atoms: C_7  and  O_8 
ROOT
HETATM    1  C   UNL     1       0.785   1.213  -0.054  1.00  0.00     0.206 C 
HETATM    2  C   UNL     1       1.472  -0.043   0.488  1.00  0.00     0.173 C 
HETATM    3  C   UNL     1       0.826  -1.303  -0.102  1.00  0.00     0.183 C 
HETATM    4  C   UNL     1      -0.691  -1.277   0.130  1.00  0.00     0.213 C 
HETATM    5  C   UNL     1      -1.322   0.057  -0.350  1.00  0.00     0.212 C 
HETATM    6  O   UNL     1      -0.624   1.188   0.187  1.00  0.00    -0.349 OA
ENDROOT
BRANCH   5   7
HETATM    7  C   UNL     1      -1.471   0.160  -1.888  1.00  0.00     0.235 C 
BRANCH   7   8
HETATM    8  O   UNL     1      -0.239   0.056  -2.595  1.00  0.00    -0.395 OA
HETATM    9  H   UNL     1      -0.216   0.796  -3.229  1.00  0.00     0.209 HD
ENDBRANCH   7   8
ENDBRANCH   5   7
BRANCH   5  10
HETATM   10  O   UNL     1      -2.654   0.122   0.185  1.00  0.00    -0.362 OA
HETATM   11  H   UNL     1      -2.590  -0.339   1.045  1.00  0.00     0.213 HD
ENDBRANCH   5  10
BRANCH   4  12
HETATM   12  O   UNL     1      -0.976  -1.413   1.553  1.00  0.00    -0.387 OA
HETATM   13  H   UNL     1      -0.363  -0.796   2.011  1.00  0.00     0.210 HD
ENDBRANCH   4  12
BRANCH   3  14
HETATM   14  O   UNL     1       1.402  -2.463   0.515  1.00  0.00    -0.390 OA
HETATM   15  H   UNL     1       1.246  -2.349   1.474  1.00  0.00     0.210 HD
ENDBRANCH   3  14
BRANCH   2  16
HETATM   16  O   UNL     1       1.308  -0.091   1.923  1.00  0.00    -0.391 OA
HETATM   17  H   UNL     1       1.586   0.777   2.272  1.00  0.00     0.210 HD
ENDBRANCH   2  16
TORSDOF 6
