REMARK  7 active torsions:
REMARK  status: ('A' for Active; 'I' for Inactive)
REMARK    1  A    between atoms: C_1  and  C_2 
REMARK    2  A    between atoms: C_1  and  O_12 
REMARK    3  A    between atoms: C_3  and  O_11 
REMARK    4  A    between atoms: C_4  and  O_10 
REMARK    5  A    between atoms: C_5  and  C_7 
REMARK    6  A    between atoms: C_5  and  O_9 
REMARK    7  A    between atoms: C_7  and  O_8 
ROOT
HETATM    1  C   UNL     1       0.500   0.989  -1.033  1.00  0.00     0.180 C 
HETATM    2  C   UNL     1       1.347   2.247  -0.885  1.00  0.00     0.183 C 
HETATM    3  C   UNL     1       0.389   3.402  -1.175  1.00  0.00     0.213 C 
HETATM    4  C   UNL     1      -0.969   2.720  -1.434  1.00  0.00     0.213 C 
HETATM    5  O   UNL     1      -0.880   1.394  -0.893  1.00  0.00    -0.341 OA
ENDROOT
BRANCH   4   6
HETATM    6  C   UNL     1      -2.145   3.466  -0.780  1.00  0.00     0.235 C 
BRANCH   6   7
HETATM    7  O   UNL     1      -2.009   3.541   0.638  1.00  0.00    -0.395 OA
HETATM    8  H   UNL     1      -2.094   2.628   0.970  1.00  0.00     0.209 HD
ENDBRANCH   6   7
ENDBRANCH   4   6
BRANCH   4   9
HETATM    9  O   UNL     1      -1.227   2.640  -2.835  1.00  0.00    -0.362 OA
HETATM   10  H   UNL     1      -0.628   1.959  -3.186  1.00  0.00     0.213 HD
ENDBRANCH   4   9
BRANCH   3  11
HETATM   11  O   UNL     1       0.864   4.163  -2.299  1.00  0.00    -0.387 OA
HETATM   12  H   UNL     1       0.118   4.216  -2.932  1.00  0.00     0.210 HD
ENDBRANCH   3  11
BRANCH   2  13
HETATM   13  O   UNL     1       2.440   2.224  -1.802  1.00  0.00    -0.390 OA
HETATM   14  H   UNL     1       2.407   3.087  -2.271  1.00  0.00     0.210 HD
ENDBRANCH   2  13
BRANCH   1  15
HETATM   15  C   UNL     1       0.833  -0.088  -0.012  1.00  0.00     0.198 C 
BRANCH  15  16
HETATM   16  O   UNL     1       0.037  -1.248  -0.258  1.00  0.00    -0.398 OA
HETATM   17  H   UNL     1      -0.859  -0.929  -0.471  1.00  0.00     0.209 HD
ENDBRANCH  15  16
ENDBRANCH   1  15
TORSDOF 7
