REMARK WARNING: 32 MAX_TORS EXCEEDED!!!
REMARK  40 active torsions:
REMARK  status: ('A' for Active; 'I' for Inactive)
REMARK    1  A    between atoms: C_2  and  C_3 
REMARK    2  A    between atoms: C_3  and  C_4 
REMARK    3  A    between atoms: C_4  and  C_5 
REMARK    4  A    between atoms: C_5  and  C_6 
REMARK    5  A    between atoms: C_6  and  C_7 
REMARK    6  A    between atoms: C_7  and  C_8 
REMARK    7  A    between atoms: C_8  and  C_9 
REMARK    8  A    between atoms: C_10  and  C_11 
REMARK    9  A    between atoms: C_11  and  C_12 
REMARK   10  A    between atoms: C_12  and  C_13 
REMARK   11  A    between atoms: C_13  and  C_14 
REMARK   12  A    between atoms: C_14  and  C_15 
REMARK   13  A    between atoms: C_15  and  C_16 
REMARK   14  A    between atoms: C_16  and  C_17 
REMARK   15  A    between atoms: C_17  and  C_18 
REMARK   16  A    between atoms: C_18  and  C_19 
REMARK   17  A    between atoms: C_19  and  C_20 
REMARK       I    between atoms: C_20  and  N_22 
REMARK   18  A    between atoms: N_22  and  C_23 
REMARK   19  A    between atoms: C_23  and  C_24 
REMARK   20  A    between atoms: C_23  and  C_37 
REMARK   21  A    between atoms: C_24  and  O_25 
REMARK   22  A    between atoms: O_25  and  C_26 
REMARK   23  A    between atoms: C_27  and  O_36 
REMARK   24  A    between atoms: C_28  and  O_35 
REMARK   25  A    between atoms: C_29  and  O_34 
REMARK   26  A    between atoms: C_30  and  C_32 
REMARK   27  A    between atoms: C_32  and  O_33 
REMARK   28  A    between atoms: C_37  and  C_38 
REMARK   29  A    between atoms: C_37  and  O_53 
REMARK   30  A    between atoms: C_39  and  C_40 
REMARK   31  A    between atoms: C_40  and  C_41 
REMARK   32  A    between atoms: C_41  and  C_42 
REMARK   33  A    between atoms: C_42  and  C_43 
REMARK   34  A    between atoms: C_43  and  C_44 
REMARK   35  A    between atoms: C_44  and  C_45 
REMARK   36  A    between atoms: C_45  and  C_46 
REMARK   37  A    between atoms: C_46  and  C_47 
REMARK   38  A    between atoms: C_47  and  C_48 
REMARK   39  A    between atoms: C_49  and  C_50 
REMARK   40  A    between atoms: C_50  and  C_51 
ROOT
HETATM    1  C   UNL     1      22.578 -12.643  -6.877  1.00  0.00     0.140 C 
ENDROOT
BRANCH   1   2
HETATM    2  N   UNL     1      21.117 -12.559  -6.862  1.00  0.00    -0.352 N 
HETATM    3  C   UNL     1      20.464 -11.333  -6.884  1.00  0.00     0.218 C 
HETATM    4  O   UNL     1      21.021 -10.245  -7.004  1.00  0.00    -0.274 OA
HETATM    5  H   UNL     1      20.631 -13.343  -6.438  1.00  0.00     0.163 HD
BRANCH   3   6
HETATM    6  C   UNL     1      18.955 -11.452  -6.804  1.00  0.00     0.103 C 
BRANCH   6   7
HETATM    7  C   UNL     1      18.520 -12.055  -5.479  1.00  0.00     0.009 C 
BRANCH   7   8
HETATM    8  C   UNL     1      17.010 -12.206  -5.410  1.00  0.00     0.000 C 
BRANCH   8   9
HETATM    9  C   UNL     1      16.629 -12.831  -4.077  1.00  0.00     0.000 C 
BRANCH   9  10
HETATM   10  C   UNL     1      15.124 -12.991  -3.987  1.00  0.00     0.000 C 
BRANCH  10  11
HETATM   11  C   UNL     1      14.739 -13.606  -2.652  1.00  0.00     0.000 C 
BRANCH  11  12
HETATM   12  C   UNL     1      13.231 -13.762  -2.575  1.00  0.00     0.000 C 
BRANCH  12  13
HETATM   13  C   UNL     1      12.831 -14.379  -1.246  1.00  0.00     0.004 C 
BRANCH  13  14
HETATM   14  C   UNL     1      11.318 -14.529  -1.181  1.00  0.00     0.027 C 
BRANCH  14  15
HETATM   15  C   UNL     1      10.923 -15.134   0.125  1.00  0.00    -0.031 C 
HETATM   16  C   UNL     1      10.136 -14.507   1.007  1.00  0.00    -0.031 C 
BRANCH  16  17
HETATM   17  C   UNL     1       9.746 -15.115   2.313  1.00  0.00     0.027 C 
BRANCH  17  18
HETATM   18  C   UNL     1       8.233 -15.271   2.379  1.00  0.00     0.004 C 
BRANCH  18  19
HETATM   19  C   UNL     1       7.830 -15.899   3.705  1.00  0.00     0.000 C 
BRANCH  19  20
HETATM   20  C   UNL     1       6.320 -16.058   3.781  1.00  0.00     0.000 C 
BRANCH  20  21
HETATM   21  C   UNL     1       5.918 -16.688   5.108  1.00  0.00     0.000 C 
BRANCH  21  22
HETATM   22  C   UNL     1       4.406 -16.847   5.182  1.00  0.00    -0.000 C 
BRANCH  22  23
HETATM   23  C   UNL     1       3.991 -17.477   6.506  1.00  0.00    -0.005 C 
HETATM   24  C   UNL     1       2.484 -17.635   6.576  1.00  0.00     0.005 C 
ENDBRANCH  22  23
ENDBRANCH  21  22
ENDBRANCH  20  21
ENDBRANCH  19  20
ENDBRANCH  18  19
ENDBRANCH  17  18
ENDBRANCH  16  17
ENDBRANCH  14  15
ENDBRANCH  13  14
ENDBRANCH  12  13
ENDBRANCH  11  12
ENDBRANCH  10  11
ENDBRANCH   9  10
ENDBRANCH   8   9
ENDBRANCH   7   8
ENDBRANCH   6   7
ENDBRANCH   3   6
ENDBRANCH   1   2
BRANCH   1  25
HETATM   25  C   UNL     1      23.075 -12.539  -5.426  1.00  0.00     0.199 C 
BRANCH  25  26
HETATM   26  O   UNL     1      24.500 -12.465  -5.293  1.00  0.00    -0.356 OA
BRANCH  26  27
HETATM   27  C   UNL     1      24.879 -12.432  -3.913  1.00  0.00     0.291 C 
HETATM   28  C   UNL     1      24.435 -11.114  -3.319  1.00  0.00     0.204 C 
HETATM   29  C   UNL     1      25.314 -10.009  -3.889  1.00  0.00     0.183 C 
HETATM   30  C   UNL     1      26.811 -10.288  -3.650  1.00  0.00     0.180 C 
HETATM   31  C   UNL     1      27.143 -11.631  -4.256  1.00  0.00     0.179 C 
HETATM   32  O   UNL     1      26.284 -12.601  -3.617  1.00  0.00    -0.348 OA
BRANCH  28  33
HETATM   33  O   UNL     1      24.553 -11.189  -1.914  1.00  0.00    -0.388 OA
HETATM   34  H   UNL     1      25.005 -12.033  -1.705  1.00  0.00     0.210 HD
ENDBRANCH  28  33
BRANCH  29  35
HETATM   35  O   UNL     1      24.893  -8.828  -3.236  1.00  0.00    -0.390 OA
HETATM   36  H   UNL     1      25.155  -9.041  -2.316  1.00  0.00     0.210 HD
ENDBRANCH  29  35
BRANCH  30  37
HETATM   37  O   UNL     1      27.118 -10.430  -2.264  1.00  0.00    -0.390 OA
HETATM   38  H   UNL     1      26.928 -11.372  -2.055  1.00  0.00     0.210 HD
ENDBRANCH  30  37
BRANCH  31  39
HETATM   39  C   UNL     1      28.573 -12.071  -3.962  1.00  0.00     0.198 C 
BRANCH  39  40
HETATM   40  O   UNL     1      28.613 -13.402  -4.427  1.00  0.00    -0.398 OA
HETATM   41  H   UNL     1      27.882 -13.824  -3.937  1.00  0.00     0.209 HD
ENDBRANCH  39  40
ENDBRANCH  31  39
ENDBRANCH  26  27
ENDBRANCH  25  26
ENDBRANCH   1  25
BRANCH   1  42
HETATM   42  C   UNL     1      23.078 -13.929  -7.575  1.00  0.00     0.165 C 
BRANCH  42  43
HETATM   43  C   UNL     1      24.562 -13.896  -7.662  1.00  0.00     0.003 C 
HETATM   44  C   UNL     1      25.190 -13.310  -8.682  1.00  0.00    -0.028 C 
BRANCH  44  45
HETATM   45  C   UNL     1      26.669 -13.081  -8.705  1.00  0.00     0.027 C 
BRANCH  45  46
HETATM   46  C   UNL     1      26.916 -11.591  -8.861  1.00  0.00     0.004 C 
BRANCH  46  47
HETATM   47  C   UNL     1      28.410 -11.294  -8.893  1.00  0.00     0.000 C 
BRANCH  47  48
HETATM   48  C   UNL     1      28.678  -9.803  -9.048  1.00  0.00     0.000 C 
BRANCH  48  49
HETATM   49  C   UNL     1      28.097  -9.018  -7.878  1.00  0.00     0.000 C 
BRANCH  49  50
HETATM   50  C   UNL     1      28.359  -7.535  -8.033  1.00  0.00     0.000 C 
BRANCH  50  51
HETATM   51  C   UNL     1      27.748  -6.780  -6.861  1.00  0.00     0.004 C 
BRANCH  51  52
HETATM   52  C   UNL     1      28.005  -5.289  -7.022  1.00  0.00     0.027 C 
BRANCH  52  53
HETATM   53  C   UNL     1      27.418  -4.534  -5.875  1.00  0.00    -0.031 C 
HETATM   54  C   UNL     1      28.156  -3.795  -5.035  1.00  0.00    -0.031 C 
BRANCH  54  55
HETATM   55  C   UNL     1      27.572  -3.045  -3.880  1.00  0.00     0.026 C 
BRANCH  55  56
HETATM   56  C   UNL     1      27.826  -1.548  -4.030  1.00  0.00    -0.001 C 
HETATM   57  C   UNL     1      27.219  -0.777  -2.871  1.00  0.00     0.005 C 
ENDBRANCH  55  56
ENDBRANCH  54  55
ENDBRANCH  52  53
ENDBRANCH  51  52
ENDBRANCH  50  51
ENDBRANCH  49  50
ENDBRANCH  48  49
ENDBRANCH  47  48
ENDBRANCH  46  47
ENDBRANCH  45  46
ENDBRANCH  44  45
ENDBRANCH  42  43
BRANCH  42  58
HETATM   58  O   UNL     1      22.689 -15.088  -6.854  1.00  0.00    -0.390 OA
HETATM   59  H   UNL     1      23.093 -15.103  -5.971  1.00  0.00     0.210 HD
ENDBRANCH  42  58
ENDBRANCH   1  42
TORSDOF 40
