REMARK  7 active torsions:
REMARK  status: ('A' for Active; 'I' for Inactive)
REMARK    1  A    between atoms: CB_1  and  CG_2 
REMARK    2  A    between atoms: CB_1  and  CA_6 
REMARK    3  A    between atoms: CG_2  and  CD_3 
REMARK    4  A    between atoms: CD_3  and  OE2_5 
REMARK    5  A    between atoms: CA_6  and  C_7 
REMARK    6  A    between atoms: CA_6  and  N_10 
REMARK    7  A    between atoms: C_7  and  OXT_9 
ROOT
ATOM      1  CA  GLU A   1       2.481   0.010   0.100  1.00  0.00     0.315 C 
ENDROOT
BRANCH   1   2
ATOM      2  CB  GLU A   1       0.943  -0.014   0.065  1.00  0.00     0.057 C 
BRANCH   2   3
ATOM      3  CG  GLU A   1       0.360  -0.253  -1.334  1.00  0.00     0.112 C 
BRANCH   3   4
ATOM      4  CD  GLU A   1       0.802  -1.571  -1.923  1.00  0.00     0.139 C 
ATOM      5  OE1 GLU A   1       1.086  -2.563  -1.272  1.00  0.00    -0.650 OA
BRANCH   4   6
ATOM      6  OE2 GLU A   1       0.872  -1.551  -3.272  1.00  0.00    -0.776 OA
ATOM      7  HE2 GLU A   1       0.616  -0.702  -3.681  1.00  0.00     0.167 HD
ENDBRANCH   4   6
ENDBRANCH   3   4
ENDBRANCH   2   3
ENDBRANCH   1   2
BRANCH   1   8
ATOM      8  C   GLU A   1       3.050   1.130  -0.789  1.00  0.00     0.173 C 
ATOM      9  O   GLU A   1       2.481   2.182  -1.036  1.00  0.00    -0.648 OA
BRANCH   8  10
ATOM     10  OXT GLU A   1       4.295   0.858  -1.247  1.00  0.00    -0.775 OA
ATOM     11  HXT GLU A   1       4.634  -0.016  -0.968  1.00  0.00     0.167 HD
ENDBRANCH   8  10
ENDBRANCH   1   8
BRANCH   1  12
ATOM     12  N   GLU A   1       2.951   0.207   1.483  1.00  0.00     0.093 N 
ATOM     13  H1  GLU A   1       2.601   1.104   1.829  1.00  0.00     0.314 HD
ATOM     14  H2  GLU A   1       3.967   0.278   1.514  1.00  0.00     0.314 HD
ENDBRANCH   1  12
TORSDOF 7
