REMARK  9 active torsions:
REMARK  status: ('A' for Active; 'I' for Inactive)
REMARK    1  A    between atoms: C_2  and  C_7 
REMARK    2  A    between atoms: C_7  and  C_8 
REMARK    3  A    between atoms: C_8  and  N_9 
REMARK       I    between atoms: N_9  and  C_10 
REMARK    4  A    between atoms: C_10  and  C_12 
REMARK    5  A    between atoms: C_12  and  C_13 
REMARK    6  A    between atoms: C_12  and  N_18 
REMARK    7  A    between atoms: C_13  and  C_14 
REMARK    8  A    between atoms: C_14  and  C_15 
REMARK    9  A    between atoms: C_15  and  O_17 
ROOT
HETATM    1  N   UNL     1       2.654  -4.163  -0.133  1.00  0.00    -0.359 N 
HETATM    2  C   UNL     1       2.445  -5.490   0.183  1.00  0.00     0.250 C 
HETATM    3  O   UNL     1       1.356  -5.930   0.543  1.00  0.00    -0.271 OA
HETATM    4  H   UNL     1       3.552  -3.931  -0.544  1.00  0.00     0.162 HD
ENDROOT
BRANCH   2   5
HETATM    5  C   UNL     1       3.732  -6.348   0.064  1.00  0.00     0.309 C 
BRANCH   5   6
HETATM    6  C   UNL     1       3.418  -7.833   0.318  1.00  0.00     0.055 C 
BRANCH   6   7
HETATM    7  C   UNL     1       4.624  -8.775   0.329  1.00  0.00     0.112 C 
BRANCH   7   8
HETATM    8  C   UNL     1       5.609  -8.480   1.437  1.00  0.00     0.139 C 
HETATM    9  O   UNL     1       5.479  -7.618   2.290  1.00  0.00    -0.650 OA
BRANCH   8  10
HETATM   10  O   UNL     1       6.689  -9.294   1.394  1.00  0.00    -0.776 OA
HETATM   11  H   UNL     1       6.661  -9.960   0.682  1.00  0.00     0.167 HD
ENDBRANCH   8  10
ENDBRANCH   7   8
ENDBRANCH   6   7
ENDBRANCH   5   6
BRANCH   5  12
HETATM   12  N   UNL     1       4.340  -6.105  -1.262  1.00  0.00     0.092 N 
HETATM   13  H   UNL     1       3.681  -6.396  -1.987  1.00  0.00     0.313 HD
HETATM   14  H   UNL     1       5.172  -6.678  -1.378  1.00  0.00     0.313 HD
ENDBRANCH   5  12
ENDBRANCH   2   5
BRANCH   1  15
HETATM   15  C   UNL     1       1.589  -3.182  -0.090  1.00  0.00     0.128 C 
BRANCH  15  16
HETATM   16  C   UNL     1       1.345  -2.654   1.328  1.00  0.00     0.078 C 
BRANCH  16  17
HETATM   17  C   UNL     1       0.208  -1.696   1.367  1.00  0.00     0.027 A 
HETATM   18  C   UNL     1       0.140  -0.329   1.199  1.00  0.00     0.114 A 
HETATM   19  N   UNL     1      -1.153   0.112   1.312  1.00  0.00    -0.360 N 
HETATM   20  C   UNL     1      -1.867  -0.960   1.557  1.00  0.00     0.180 A 
ATOM     21  HN  UNL     1      -1.489   1.071   1.224  1.00  0.00     0.166 HD
HETATM   22  N   UNL     1      -1.088  -2.080   1.604  1.00  0.00    -0.355 N 
HETATM   23  H   UNL     1      -1.414  -3.025   1.776  1.00  0.00     0.166 HD
ENDBRANCH  16  17
ENDBRANCH  15  16
ENDBRANCH   1  15
TORSDOF 9
