REMARK  22 active torsions:
REMARK  status: ('A' for Active; 'I' for Inactive)
REMARK       I    between atoms: C_2  and  N_4 
REMARK    1  A    between atoms: N_4  and  C_5 
REMARK    2  A    between atoms: C_6  and  O_51 
REMARK    3  A    between atoms: C_7  and  O_25 
REMARK    4  A    between atoms: C_8  and  C_23 
REMARK    5  A    between atoms: C_10  and  N_11 
REMARK       I    between atoms: N_11  and  C_12 
REMARK    6  A    between atoms: C_12  and  C_14 
REMARK    7  A    between atoms: C_14  and  C_15 
REMARK    8  A    between atoms: C_15  and  C_16 
REMARK    9  A    between atoms: C_15  and  N_19 
REMARK       I    between atoms: C_16  and  N_18 
REMARK       I    between atoms: N_19  and  C_20 
REMARK   10  A    between atoms: C_23  and  O_24 
REMARK   11  A    between atoms: O_25  and  C_26 
REMARK   12  A    between atoms: C_27  and  N_47 
REMARK   13  A    between atoms: C_28  and  O_46 
REMARK   14  A    between atoms: C_29  and  O_34 
REMARK   15  A    between atoms: C_30  and  C_32 
REMARK   16  A    between atoms: C_32  and  O_33 
REMARK   17  A    between atoms: O_34  and  C_35 
REMARK   18  A    between atoms: C_36  and  O_45 
REMARK   19  A    between atoms: C_37  and  O_44 
REMARK   20  A    between atoms: C_38  and  O_43 
REMARK   21  A    between atoms: C_39  and  C_41 
REMARK   22  A    between atoms: C_41  and  O_42 
REMARK       I    between atoms: N_47  and  C_48 
ROOT
HETATM    1  O   UNL     1       7.115   1.753  -1.627  1.00  0.00    -0.348 OA
ENDROOT
BRANCH   1   2
HETATM    2  C   UNL     1       6.750   0.380  -1.354  1.00  0.00     0.186 C 
HETATM    3  C   UNL     1       5.275   0.208  -1.611  1.00  0.00     0.176 C 
HETATM    4  C   UNL     1       4.367   0.743  -0.488  1.00  0.00     0.164 C 
HETATM    5  C   UNL     1       4.680  -0.002   0.833  1.00  0.00     0.249 C 
HETATM    6  O   UNL     1       6.084   0.082   1.122  1.00  0.00    -0.354 OA
HETATM    7  C   UNL     1       7.055  -0.184   0.080  1.00  0.00     0.179 C 
BRANCH   3   8
HETATM    8  O   UNL     1       4.990  -1.163  -1.922  1.00  0.00    -0.391 OA
HETATM    9  H   UNL     1       4.214  -1.422  -1.389  1.00  0.00     0.210 HD
ENDBRANCH   3   8
BRANCH   4  10
HETATM   10  N   UNL     1       3.000   0.593  -0.995  1.00  0.00    -0.350 N 
HETATM   11  C   UNL     1       1.931   1.360  -0.631  1.00  0.00     0.214 C 
HETATM   12  C   UNL     1       0.677   0.982  -1.393  1.00  0.00     0.117 C 
HETATM   13  O   UNL     1       1.973   2.252   0.200  1.00  0.00    -0.274 OA
HETATM   14  H   UNL     1       2.869  -0.001  -1.809  1.00  0.00     0.163 HD
ENDBRANCH   4  10
BRANCH   5  15
HETATM   15  N   UNL     1       4.272  -1.408   0.838  1.00  0.00    -0.333 N 
HETATM   16  C   UNL     1       2.962  -1.801   1.050  1.00  0.00     0.222 C 
HETATM   17  O   UNL     1       2.072  -1.048   1.422  1.00  0.00    -0.273 OA
HETATM   18  H   UNL     1       4.980  -2.082   1.081  1.00  0.00     0.165 HD
BRANCH  16  19
HETATM   19  C   UNL     1       2.710  -3.279   0.760  1.00  0.00     0.137 C 
BRANCH  19  20
HETATM   20  C   UNL     1       1.237  -3.522   0.398  1.00  0.00     0.185 C 
BRANCH  20  21
HETATM   21  C   UNL     1       0.850  -2.790  -0.927  1.00  0.00     0.238 C 
HETATM   22  O   UNL     1       1.652  -2.176  -1.611  1.00  0.00    -0.271 OA
HETATM   23  N   UNL     1      -0.450  -2.911  -1.283  1.00  0.00    -0.368 N 
HETATM   24  H   UNL     1      -1.141  -3.355  -0.679  1.00  0.00     0.159 HD
HETATM   25  H   UNL     1      -0.792  -2.397  -2.096  1.00  0.00     0.159 HD
ENDBRANCH  20  21
BRANCH  20  26
HETATM   26  N   UNL     1       0.959  -4.954   0.155  1.00  0.00    -0.348 N 
HETATM   27  C   UNL     1      -0.301  -5.466   0.398  1.00  0.00     0.214 C 
HETATM   28  O   UNL     1      -1.210  -4.797   0.894  1.00  0.00    -0.274 OA
HETATM   29  C   UNL     1      -0.509  -6.872  -0.063  1.00  0.00     0.117 C 
HETATM   30  H   UNL     1       1.470  -5.385  -0.598  1.00  0.00     0.163 HD
ENDBRANCH  20  26
ENDBRANCH  19  20
ENDBRANCH  16  19
ENDBRANCH   5  15
BRANCH   7  31
HETATM   31  C   UNL     1       7.286  -1.717   0.016  1.00  0.00     0.198 C 
BRANCH  31  32
HETATM   32  O   UNL     1       8.420  -2.068  -0.767  1.00  0.00    -0.398 OA
HETATM   33  H   UNL     1       8.146  -2.056  -1.701  1.00  0.00     0.209 HD
ENDBRANCH  31  32
ENDBRANCH   7  31
ENDBRANCH   1   2
BRANCH   1  34
HETATM   34  C   UNL     1       7.365   2.047  -3.045  1.00  0.00     0.286 C 
HETATM   35  C   UNL     1       8.107   3.384  -3.264  1.00  0.00     0.170 C 
HETATM   36  C   UNL     1       7.131   4.516  -2.968  1.00  0.00     0.177 C 
HETATM   37  C   UNL     1       5.920   4.573  -3.886  1.00  0.00     0.186 C 
HETATM   38  C   UNL     1       5.342   3.135  -4.108  1.00  0.00     0.180 C 
HETATM   39  O   UNL     1       6.236   1.998  -3.944  1.00  0.00    -0.349 OA
BRANCH  35  40
HETATM   40  N   UNL     1       9.405   3.473  -2.557  1.00  0.00    -0.349 N 
HETATM   41  C   UNL     1       9.824   4.533  -1.762  1.00  0.00     0.214 C 
HETATM   42  O   UNL     1       9.219   5.575  -1.563  1.00  0.00    -0.274 OA
HETATM   43  C   UNL     1      11.156   4.325  -1.107  1.00  0.00     0.117 C 
HETATM   44  H   UNL     1      10.080   2.745  -2.753  1.00  0.00     0.163 HD
ENDBRANCH  35  40
BRANCH  36  45
HETATM   45  O   UNL     1       6.620   4.429  -1.633  1.00  0.00    -0.391 OA
HETATM   46  H   UNL     1       6.230   5.298  -1.425  1.00  0.00     0.210 HD
ENDBRANCH  36  45
BRANCH  37  47
HETATM   47  O   UNL     1       6.018   5.517  -4.997  1.00  0.00    -0.348 OA
BRANCH  47  48
HETATM   48  C   UNL     1       6.361   6.892  -4.588  1.00  0.00     0.292 C 
HETATM   49  C   UNL     1       5.400   7.715  -3.683  1.00  0.00     0.204 C 
HETATM   50  C   UNL     1       4.498   8.686  -4.429  1.00  0.00     0.183 C 
HETATM   51  C   UNL     1       5.289   9.559  -5.399  1.00  0.00     0.180 C 
HETATM   52  C   UNL     1       6.461   8.861  -6.123  1.00  0.00     0.179 C 
HETATM   53  O   UNL     1       6.953   7.604  -5.664  1.00  0.00    -0.348 OA
BRANCH  49  54
HETATM   54  O   UNL     1       4.603   6.947  -2.777  1.00  0.00    -0.388 OA
HETATM   55  H   UNL     1       3.819   6.690  -3.309  1.00  0.00     0.210 HD
ENDBRANCH  49  54
BRANCH  50  56
HETATM   56  O   UNL     1       3.447   7.948  -5.056  1.00  0.00    -0.390 OA
HETATM   57  H   UNL     1       3.112   8.469  -5.811  1.00  0.00     0.210 HD
ENDBRANCH  50  56
BRANCH  51  58
HETATM   58  O   UNL     1       5.803  10.727  -4.723  1.00  0.00    -0.390 OA
HETATM   59  H   UNL     1       5.857  10.579  -3.764  1.00  0.00     0.210 HD
ENDBRANCH  51  58
BRANCH  52  60
HETATM   60  C   UNL     1       6.153   8.628  -7.603  1.00  0.00     0.198 C 
BRANCH  60  61
HETATM   61  O   UNL     1       5.038   7.750  -7.731  1.00  0.00    -0.398 OA
HETATM   62  H   UNL     1       5.314   6.908  -7.315  1.00  0.00     0.209 HD
ENDBRANCH  60  61
ENDBRANCH  52  60
ENDBRANCH  47  48
ENDBRANCH  37  47
BRANCH  38  63
HETATM   63  C   UNL     1       4.130   2.958  -3.148  1.00  0.00     0.198 C 
BRANCH  63  64
HETATM   64  O   UNL     1       3.051   3.837  -3.451  1.00  0.00    -0.398 OA
HETATM   65  H   UNL     1       3.141   4.617  -2.877  1.00  0.00     0.209 HD
ENDBRANCH  63  64
ENDBRANCH  38  63
ENDBRANCH   1  34
TORSDOF 22
