REMARK  21 active torsions:
REMARK  status: ('A' for Active; 'I' for Inactive)
REMARK    1  A    between atoms: C_2  and  C_3 
REMARK    2  A    between atoms: C_3  and  C_4 
REMARK    3  A    between atoms: C_4  and  C_5 
REMARK    4  A    between atoms: C_5  and  C_6 
REMARK    5  A    between atoms: C_6  and  C_7 
REMARK    6  A    between atoms: C_7  and  C_8 
REMARK    7  A    between atoms: C_8  and  C_9 
REMARK    8  A    between atoms: C_10  and  C_11 
REMARK    9  A    between atoms: C_11  and  C_12 
REMARK   10  A    between atoms: C_12  and  C_13 
REMARK   11  A    between atoms: C_13  and  C_14 
REMARK   12  A    between atoms: C_14  and  C_15 
REMARK   13  A    between atoms: C_15  and  C_16 
REMARK   14  A    between atoms: C_16  and  C_17 
REMARK   15  A    between atoms: C_17  and  C_18 
REMARK   16  A    between atoms: C_18  and  O_20 
REMARK   17  A    between atoms: O_20  and  C_21 
REMARK   18  A    between atoms: C_21  and  C_22 
REMARK   19  A    between atoms: C_22  and  C_23 
REMARK   20  A    between atoms: C_22  and  O_25 
REMARK   21  A    between atoms: C_23  and  O_24 
ROOT
HETATM    1  C   UNL     1      14.520   4.252   7.841  1.00  0.00     0.000 C 
ENDROOT
BRANCH   1   2
HETATM    2  C   UNL     1      12.998   4.237   7.818  1.00  0.00     0.000 C 
BRANCH   2   3
HETATM    3  C   UNL     1      12.478   3.542   6.564  1.00  0.00     0.004 C 
BRANCH   3   4
HETATM    4  C   UNL     1      10.954   3.542   6.549  1.00  0.00     0.027 C 
BRANCH   4   5
HETATM    5  C   UNL     1      10.441   2.850   5.325  1.00  0.00    -0.031 C 
HETATM    6  C   UNL     1       9.691   1.740   5.369  1.00  0.00    -0.031 C 
BRANCH   6   7
HETATM    7  C   UNL     1       9.175   1.049   4.147  1.00  0.00     0.027 C 
BRANCH   7   8
HETATM    8  C   UNL     1       7.651   1.053   4.138  1.00  0.00     0.004 C 
BRANCH   8   9
HETATM    9  C   UNL     1       7.123   0.357   2.889  1.00  0.00     0.000 C 
BRANCH   9  10
HETATM   10  C   UNL     1       5.599   0.348   2.876  1.00  0.00     0.000 C 
BRANCH  10  11
HETATM   11  C   UNL     1       5.074  -0.347   1.624  1.00  0.00     0.000 C 
BRANCH  11  12
HETATM   12  C   UNL     1       3.549  -0.354   1.610  1.00  0.00    -0.000 C 
BRANCH  12  13
HETATM   13  C   UNL     1       3.015  -1.052   0.363  1.00  0.00    -0.005 C 
HETATM   14  C   UNL     1       1.496  -1.059   0.352  1.00  0.00     0.005 C 
ENDBRANCH  12  13
ENDBRANCH  11  12
ENDBRANCH  10  11
ENDBRANCH   9  10
ENDBRANCH   8   9
ENDBRANCH   7   8
ENDBRANCH   6   7
ENDBRANCH   4   5
ENDBRANCH   3   4
ENDBRANCH   2   3
ENDBRANCH   1   2
BRANCH   1  15
HETATM   15  C   UNL     1      15.043   4.954   9.093  1.00  0.00     0.000 C 
BRANCH  15  16
HETATM   16  C   UNL     1      16.564   4.962   9.085  1.00  0.00     0.010 C 
BRANCH  16  17
HETATM   17  C   UNL     1      17.155   5.656  10.310  1.00  0.00     0.111 C 
BRANCH  17  18
HETATM   18  C   UNL     1      18.658   5.523  10.294  1.00  0.00     0.258 C 
HETATM   19  O   UNL     1      19.287   4.926   9.424  1.00  0.00    -0.265 OA
BRANCH  18  20
HETATM   20  O   UNL     1      19.199   6.076  11.409  1.00  0.00    -0.319 OA
BRANCH  20  21
HETATM   21  C   UNL     1      20.524   5.639  11.705  1.00  0.00     0.212 C 
BRANCH  21  22
HETATM   22  C   UNL     1      21.586   6.281  10.823  1.00  0.00     0.166 C 
BRANCH  22  23
HETATM   23  C   UNL     1      21.624   7.804  10.969  1.00  0.00     0.198 C 
BRANCH  23  24
HETATM   24  O   UNL     1      22.661   8.333  10.151  1.00  0.00    -0.398 OA
HETATM   25  H   UNL     1      23.408   7.706  10.212  1.00  0.00     0.209 HD
ENDBRANCH  23  24
ENDBRANCH  22  23
BRANCH  22  26
HETATM   26  O   UNL     1      22.878   5.760  11.181  1.00  0.00    -0.391 OA
HETATM   27  H   UNL     1      23.075   6.007  12.103  1.00  0.00     0.210 HD
ENDBRANCH  22  26
ENDBRANCH  21  22
ENDBRANCH  20  21
ENDBRANCH  18  20
ENDBRANCH  17  18
ENDBRANCH  16  17
ENDBRANCH  15  16
ENDBRANCH   1  15
TORSDOF 21
