REMARK  25 active torsions:
REMARK  status: ('A' for Active; 'I' for Inactive)
REMARK    1  A    between atoms: C_2  and  C_3 
REMARK    2  A    between atoms: C_3  and  C_4 
REMARK    3  A    between atoms: C_4  and  C_5 
REMARK    4  A    between atoms: C_5  and  C_6 
REMARK    5  A    between atoms: C_6  and  C_7 
REMARK    6  A    between atoms: C_7  and  C_8 
REMARK    7  A    between atoms: C_8  and  C_9 
REMARK    8  A    between atoms: C_9  and  C_10 
REMARK    9  A    between atoms: C_10  and  C_11 
REMARK   10  A    between atoms: C_11  and  C_12 
REMARK   11  A    between atoms: C_12  and  C_13 
REMARK   12  A    between atoms: C_13  and  C_14 
REMARK   13  A    between atoms: C_15  and  C_16 
REMARK   14  A    between atoms: C_16  and  C_17 
REMARK   15  A    between atoms: C_16  and  O_33 
REMARK   16  A    between atoms: C_17  and  C_18 
REMARK   17  A    between atoms: C_17  and  N_30 
REMARK   18  A    between atoms: C_18  and  O_19 
REMARK   19  A    between atoms: O_19  and  P_20 
REMARK   20  A    between atoms: P_20  and  O_22 
REMARK   21  A    between atoms: P_20  and  O_23 
REMARK   22  A    between atoms: O_23  and  C_24 
REMARK   23  A    between atoms: C_24  and  C_25 
REMARK   24  A    between atoms: C_25  and  N_26 
REMARK   25  A    between atoms: N_30  and  C_31 
ROOT
HETATM    1  C   UNL     1      16.813   8.842  -4.290  1.00  0.00     0.165 C 
ENDROOT
BRANCH   1   2
HETATM    2  C   UNL     1      15.311   8.871  -4.267  1.00  0.00     0.003 C 
HETATM    3  C   UNL     1      14.553   7.932  -3.684  1.00  0.00    -0.028 C 
BRANCH   3   4
HETATM    4  C   UNL     1      13.077   7.855  -3.768  1.00  0.00     0.027 C 
BRANCH   4   5
HETATM    5  C   UNL     1      12.669   6.548  -4.435  1.00  0.00     0.004 C 
BRANCH   5   6
HETATM    6  C   UNL     1      11.155   6.485  -4.493  1.00  0.00     0.000 C 
BRANCH   6   7
HETATM    7  C   UNL     1      10.704   5.200  -5.158  1.00  0.00     0.000 C 
BRANCH   7   8
HETATM    8  C   UNL     1       9.188   5.159  -5.207  1.00  0.00     0.000 C 
BRANCH   8   9
HETATM    9  C   UNL     1       8.727   3.876  -5.871  1.00  0.00     0.000 C 
BRANCH   9  10
HETATM   10  C   UNL     1       7.211   3.837  -5.920  1.00  0.00     0.000 C 
BRANCH  10  11
HETATM   11  C   UNL     1       6.748   2.554  -6.585  1.00  0.00     0.000 C 
BRANCH  11  12
HETATM   12  C   UNL     1       5.231   2.513  -6.633  1.00  0.00     0.000 C 
BRANCH  12  13
HETATM   13  C   UNL     1       4.768   1.230  -7.299  1.00  0.00     0.000 C 
BRANCH  13  14
HETATM   14  C   UNL     1       3.250   1.184  -7.353  1.00  0.00    -0.000 C 
BRANCH  14  15
HETATM   15  C   UNL     1       2.782  -0.101  -8.020  1.00  0.00    -0.005 C 
HETATM   16  C   UNL     1       1.268  -0.141  -8.071  1.00  0.00     0.005 C 
ENDBRANCH  14  15
ENDBRANCH  13  14
ENDBRANCH  12  13
ENDBRANCH  11  12
ENDBRANCH  10  11
ENDBRANCH   9  10
ENDBRANCH   8   9
ENDBRANCH   7   8
ENDBRANCH   6   7
ENDBRANCH   5   6
ENDBRANCH   4   5
ENDBRANCH   3   4
ENDBRANCH   1   2
BRANCH   1  17
HETATM   17  C   UNL     1      17.430   7.586  -5.013  1.00  0.00     0.140 C 
BRANCH  17  18
HETATM   18  C   UNL     1      17.070   6.248  -4.270  1.00  0.00     0.208 C 
BRANCH  18  19
HETATM   19  O   UNL     1      17.386   6.304  -2.857  1.00  0.00    -0.295 OA
BRANCH  19  20
HETATM   20  P   UNL     1      17.207   4.956  -1.952  1.00  0.00     0.393 P 
HETATM   21  O   UNL     1      16.000   4.169  -2.200  1.00  0.00    -0.631 OA
BRANCH  20  22
HETATM   22  O   UNL     1      18.561   4.205  -2.329  1.00  0.00    -0.307 OA
HETATM   23  H   UNL     1      19.005   4.672  -3.072  1.00  0.00     0.222 HD
ENDBRANCH  20  22
BRANCH  20  24
HETATM   24  O   UNL     1      17.498   5.377  -0.419  1.00  0.00    -0.295 OA
BRANCH  24  25
HETATM   25  C   UNL     1      16.539   5.109   0.610  1.00  0.00     0.208 C 
BRANCH  25  26
HETATM   26  C   UNL     1      15.891   3.690   0.721  1.00  0.00     0.262 C 
BRANCH  26  27
HETATM   27  N   UNL     1      16.897   2.588   1.141  1.00  0.00    -0.077 N 
HETATM   28  C   UNL     1      17.992   2.468   0.099  1.00  0.00     0.271 C 
HETATM   29  C   UNL     1      17.496   2.900   2.509  1.00  0.00     0.271 C 
HETATM   30  C   UNL     1      16.183   1.234   1.225  1.00  0.00     0.271 C 
ENDBRANCH  26  27
ENDBRANCH  25  26
ENDBRANCH  24  25
ENDBRANCH  20  24
ENDBRANCH  19  20
ENDBRANCH  18  19
ENDBRANCH  17  18
BRANCH  17  31
HETATM   31  N   UNL     1      17.036   7.462  -6.444  1.00  0.00    -0.359 N 
HETATM   32  H   UNL     1      16.570   6.607  -6.724  1.00  0.00     0.162 HD
BRANCH  31  33
HETATM   33  C   UNL     1      17.258   8.377  -7.439  1.00  0.00     0.349 C 
HETATM   34  O   UNL     1      17.814   9.436  -7.342  1.00  0.00    -0.284 OA
ENDBRANCH  31  33
ENDBRANCH  17  31
ENDBRANCH   1  17
BRANCH   1  35
HETATM   35  O   UNL     1      17.244  10.063  -4.864  1.00  0.00    -0.390 OA
HETATM   36  H   UNL     1      17.223   9.973  -5.838  1.00  0.00     0.210 HD
ENDBRANCH   1  35
TORSDOF 25
