REMARK  16 active torsions:
REMARK  status: ('A' for Active; 'I' for Inactive)
REMARK    1  A    between atoms: C_2  and  C_3 
REMARK    2  A    between atoms: C_3  and  C_4 
REMARK    3  A    between atoms: C_4  and  C_5 
REMARK    4  A    between atoms: C_5  and  C_6 
REMARK    5  A    between atoms: C_6  and  C_7 
REMARK    6  A    between atoms: C_7  and  C_8 
REMARK    7  A    between atoms: C_8  and  C_9 
REMARK    8  A    between atoms: C_9  and  C_10 
REMARK    9  A    between atoms: C_10  and  C_11 
REMARK   10  A    between atoms: C_11  and  C_12 
REMARK   11  A    between atoms: C_12  and  O_14 
REMARK   12  A    between atoms: O_14  and  C_15 
REMARK   13  A    between atoms: C_15  and  C_16 
REMARK   14  A    between atoms: C_16  and  C_17 
REMARK   15  A    between atoms: C_16  and  O_19 
REMARK   16  A    between atoms: C_17  and  O_18 
ROOT
HETATM    1  C   UNL     1      11.236  -3.745   6.138  1.00  0.00     0.111 C 
ENDROOT
BRANCH   1   2
HETATM    2  C   UNL     1      10.664  -2.995   4.936  1.00  0.00     0.010 C 
BRANCH   2   3
HETATM    3  C   UNL     1       9.144  -2.995   4.930  1.00  0.00     0.000 C 
BRANCH   3   4
HETATM    4  C   UNL     1       8.628  -2.231   3.718  1.00  0.00     0.000 C 
BRANCH   4   5
HETATM    5  C   UNL     1       7.108  -2.224   3.707  1.00  0.00     0.000 C 
BRANCH   5   6
HETATM    6  C   UNL     1       6.596  -1.459   2.498  1.00  0.00     0.000 C 
BRANCH   6   7
HETATM    7  C   UNL     1       5.077  -1.453   2.492  1.00  0.00     0.000 C 
BRANCH   7   8
HETATM    8  C   UNL     1       4.565  -0.690   1.283  1.00  0.00     0.000 C 
BRANCH   8   9
HETATM    9  C   UNL     1       3.045  -0.681   1.277  1.00  0.00    -0.000 C 
BRANCH   9  10
HETATM   10  C   UNL     1       2.524   0.080   0.067  1.00  0.00    -0.005 C 
HETATM   11  C   UNL     1       1.009   0.088   0.066  1.00  0.00     0.005 C 
ENDBRANCH   9  10
ENDBRANCH   8   9
ENDBRANCH   7   8
ENDBRANCH   6   7
ENDBRANCH   5   6
ENDBRANCH   4   5
ENDBRANCH   3   4
ENDBRANCH   2   3
ENDBRANCH   1   2
BRANCH   1  12
HETATM   12  C   UNL     1      12.750  -3.703   6.089  1.00  0.00     0.258 C 
HETATM   13  O   UNL     1      13.395  -3.194   5.197  1.00  0.00    -0.265 OA
BRANCH  12  14
HETATM   14  O   UNL     1      13.281  -4.426   7.123  1.00  0.00    -0.319 OA
BRANCH  14  15
HETATM   15  C   UNL     1      14.597  -4.944   6.859  1.00  0.00     0.212 C 
BRANCH  15  16
HETATM   16  C   UNL     1      15.715  -3.899   6.942  1.00  0.00     0.166 C 
BRANCH  16  17
HETATM   17  C   UNL     1      15.770  -3.262   8.333  1.00  0.00     0.198 C 
BRANCH  17  18
HETATM   18  O   UNL     1      16.800  -2.282   8.427  1.00  0.00    -0.398 OA
HETATM   19  H   UNL     1      17.620  -2.690   8.093  1.00  0.00     0.209 HD
ENDBRANCH  17  18
ENDBRANCH  16  17
BRANCH  16  20
HETATM   20  O   UNL     1      16.986  -4.490   6.626  1.00  0.00    -0.391 OA
HETATM   21  H   UNL     1      17.181  -5.180   7.281  1.00  0.00     0.210 HD
ENDBRANCH  16  20
ENDBRANCH  15  16
ENDBRANCH  14  15
ENDBRANCH  12  14
ENDBRANCH   1  12
TORSDOF 16
