REMARK  22 active torsions:
REMARK  status: ('A' for Active; 'I' for Inactive)
REMARK    1  A    between atoms: C_2  and  C_3 
REMARK    2  A    between atoms: C_3  and  C_4 
REMARK    3  A    between atoms: C_4  and  C_5 
REMARK    4  A    between atoms: C_5  and  C_6 
REMARK    5  A    between atoms: C_6  and  C_7 
REMARK    6  A    between atoms: C_7  and  C_8 
REMARK    7  A    between atoms: C_8  and  C_9 
REMARK    8  A    between atoms: C_9  and  C_10 
REMARK    9  A    between atoms: C_10  and  C_11 
REMARK   10  A    between atoms: C_11  and  C_12 
REMARK   11  A    between atoms: C_12  and  C_13 
REMARK   12  A    between atoms: C_13  and  C_14 
REMARK   13  A    between atoms: C_14  and  C_15 
REMARK   14  A    between atoms: C_15  and  C_16 
REMARK   15  A    between atoms: C_16  and  C_17 
REMARK   16  A    between atoms: C_17  and  C_18 
REMARK   17  A    between atoms: C_18  and  O_20 
REMARK   18  A    between atoms: O_20  and  C_21 
REMARK   19  A    between atoms: C_21  and  C_22 
REMARK   20  A    between atoms: C_22  and  C_23 
REMARK   21  A    between atoms: C_22  and  O_25 
REMARK   22  A    between atoms: C_23  and  O_24 
ROOT
HETATM    1  C   UNL     1      14.711   6.899   5.179  1.00  0.00     0.000 C 
ENDROOT
BRANCH   1   2
HETATM    2  C   UNL     1      13.191   6.885   5.169  1.00  0.00     0.000 C 
BRANCH   2   3
HETATM    3  C   UNL     1      12.679   5.751   4.297  1.00  0.00     0.000 C 
BRANCH   3   4
HETATM    4  C   UNL     1      11.160   5.745   4.293  1.00  0.00     0.000 C 
BRANCH   4   5
HETATM    5  C   UNL     1      10.648   4.612   3.422  1.00  0.00     0.000 C 
BRANCH   5   6
HETATM    6  C   UNL     1       9.131   4.609   3.417  1.00  0.00     0.000 C 
BRANCH   6   7
HETATM    7  C   UNL     1       8.620   3.475   2.548  1.00  0.00     0.000 C 
BRANCH   7   8
HETATM    8  C   UNL     1       7.103   3.474   2.542  1.00  0.00     0.000 C 
BRANCH   8   9
HETATM    9  C   UNL     1       6.592   2.338   1.674  1.00  0.00     0.000 C 
BRANCH   9  10
HETATM   10  C   UNL     1       5.074   2.335   1.667  1.00  0.00     0.000 C 
BRANCH  10  11
HETATM   11  C   UNL     1       4.562   1.198   0.798  1.00  0.00     0.000 C 
BRANCH  11  12
HETATM   12  C   UNL     1       3.042   1.193   0.789  1.00  0.00    -0.000 C 
BRANCH  12  13
HETATM   13  C   UNL     1       2.519   0.057  -0.079  1.00  0.00    -0.005 C 
HETATM   14  C   UNL     1       1.003   0.056  -0.087  1.00  0.00     0.005 C 
ENDBRANCH  12  13
ENDBRANCH  11  12
ENDBRANCH  10  11
ENDBRANCH   9  10
ENDBRANCH   8   9
ENDBRANCH   7   8
ENDBRANCH   6   7
ENDBRANCH   5   6
ENDBRANCH   4   5
ENDBRANCH   3   4
ENDBRANCH   2   3
ENDBRANCH   1   2
BRANCH   1  15
HETATM   15  C   UNL     1      15.226   8.037   6.054  1.00  0.00     0.000 C 
BRANCH  15  16
HETATM   16  C   UNL     1      16.746   8.050   6.063  1.00  0.00     0.010 C 
BRANCH  16  17
HETATM   17  C   UNL     1      17.314   9.179   6.923  1.00  0.00     0.111 C 
BRANCH  17  18
HETATM   18  C   UNL     1      18.822   9.139   6.887  1.00  0.00     0.258 C 
HETATM   19  O   UNL     1      19.473   8.288   6.274  1.00  0.00    -0.265 OA
BRANCH  18  20
HETATM   20  O   UNL     1      19.359  10.098   7.688  1.00  0.00    -0.319 OA
BRANCH  20  21
HETATM   21  C   UNL     1      20.657   9.759   8.204  1.00  0.00     0.212 C 
BRANCH  21  22
HETATM   22  C   UNL     1      21.776   9.927   7.179  1.00  0.00     0.166 C 
BRANCH  22  23
HETATM   23  C   UNL     1      21.866  11.371   6.693  1.00  0.00     0.198 C 
BRANCH  23  24
HETATM   24  O   UNL     1      22.908  11.492   5.743  1.00  0.00    -0.398 OA
HETATM   25  H   UNL     1      23.747  11.279   6.193  1.00  0.00     0.209 HD
ENDBRANCH  23  24
ENDBRANCH  22  23
BRANCH  22  26
HETATM   26  O   UNL     1      23.017   9.486   7.725  1.00  0.00    -0.391 OA
HETATM   27  H   UNL     1      23.296  10.092   8.433  1.00  0.00     0.210 HD
ENDBRANCH  22  26
ENDBRANCH  21  22
ENDBRANCH  20  21
ENDBRANCH  18  20
ENDBRANCH  17  18
ENDBRANCH  16  17
ENDBRANCH  15  16
ENDBRANCH   1  15
TORSDOF 22
