REMARK  26 active torsions:
REMARK  status: ('A' for Active; 'I' for Inactive)
REMARK    1  A    between atoms: C_2  and  C_3 
REMARK    2  A    between atoms: C_3  and  C_4 
REMARK    3  A    between atoms: C_4  and  C_5 
REMARK    4  A    between atoms: C_5  and  C_6 
REMARK    5  A    between atoms: C_6  and  C_7 
REMARK    6  A    between atoms: C_7  and  C_8 
REMARK    7  A    between atoms: C_8  and  C_9 
REMARK    8  A    between atoms: C_9  and  C_10 
REMARK    9  A    between atoms: C_10  and  C_11 
REMARK   10  A    between atoms: C_11  and  C_12 
REMARK   11  A    between atoms: C_12  and  C_13 
REMARK   12  A    between atoms: C_13  and  C_14 
REMARK   13  A    between atoms: C_14  and  C_15 
REMARK   14  A    between atoms: C_15  and  C_16 
REMARK   15  A    between atoms: C_16  and  C_17 
REMARK   16  A    between atoms: C_17  and  C_18 
REMARK   17  A    between atoms: C_18  and  C_19 
REMARK   18  A    between atoms: C_19  and  C_20 
REMARK   19  A    between atoms: C_20  and  C_21 
REMARK   20  A    between atoms: C_21  and  C_22 
REMARK   21  A    between atoms: C_22  and  O_24 
REMARK   22  A    between atoms: O_24  and  C_25 
REMARK   23  A    between atoms: C_25  and  C_26 
REMARK   24  A    between atoms: C_26  and  C_27 
REMARK   25  A    between atoms: C_26  and  O_29 
REMARK   26  A    between atoms: C_27  and  O_28 
ROOT
HETATM    1  C   UNL     1      16.612   3.211   9.524  1.00  0.00     0.000 C 
ENDROOT
BRANCH   1   2
HETATM    2  C   UNL     1      15.093   3.208   9.515  1.00  0.00     0.000 C 
BRANCH   2   3
HETATM    3  C   UNL     1      14.581   2.751   8.160  1.00  0.00     0.000 C 
BRANCH   3   4
HETATM    4  C   UNL     1      13.064   2.749   8.155  1.00  0.00     0.000 C 
BRANCH   4   5
HETATM    5  C   UNL     1      12.553   2.292   6.802  1.00  0.00     0.000 C 
BRANCH   5   6
HETATM    6  C   UNL     1      11.036   2.291   6.797  1.00  0.00     0.000 C 
BRANCH   6   7
HETATM    7  C   UNL     1      10.525   1.834   5.443  1.00  0.00     0.000 C 
BRANCH   7   8
HETATM    8  C   UNL     1       9.008   1.833   5.439  1.00  0.00     0.000 C 
BRANCH   8   9
HETATM    9  C   UNL     1       8.498   1.376   4.085  1.00  0.00     0.000 C 
BRANCH   9  10
HETATM   10  C   UNL     1       6.981   1.374   4.080  1.00  0.00     0.000 C 
BRANCH  10  11
HETATM   11  C   UNL     1       6.470   0.918   2.726  1.00  0.00     0.000 C 
BRANCH  11  12
HETATM   12  C   UNL     1       4.952   0.913   2.720  1.00  0.00     0.000 C 
BRANCH  12  13
HETATM   13  C   UNL     1       4.439   0.454   1.365  1.00  0.00     0.000 C 
BRANCH  13  14
HETATM   14  C   UNL     1       2.920   0.449   1.357  1.00  0.00    -0.000 C 
BRANCH  14  15
HETATM   15  C   UNL     1       2.396  -0.009   0.003  1.00  0.00    -0.005 C 
HETATM   16  C   UNL     1       0.880  -0.012  -0.003  1.00  0.00     0.005 C 
ENDBRANCH  14  15
ENDBRANCH  13  14
ENDBRANCH  12  13
ENDBRANCH  11  12
ENDBRANCH  10  11
ENDBRANCH   9  10
ENDBRANCH   8   9
ENDBRANCH   7   8
ENDBRANCH   6   7
ENDBRANCH   5   6
ENDBRANCH   4   5
ENDBRANCH   3   4
ENDBRANCH   2   3
ENDBRANCH   1   2
BRANCH   1  17
HETATM   17  C   UNL     1      17.124   3.667  10.881  1.00  0.00     0.000 C 
BRANCH  17  18
HETATM   18  C   UNL     1      18.644   3.674  10.896  1.00  0.00     0.000 C 
BRANCH  18  19
HETATM   19  C   UNL     1      19.161   4.133  12.256  1.00  0.00     0.000 C 
BRANCH  19  20
HETATM   20  C   UNL     1      20.682   4.139  12.259  1.00  0.00     0.010 C 
BRANCH  20  21
HETATM   21  C   UNL     1      21.260   4.595  13.597  1.00  0.00     0.111 C 
BRANCH  21  22
HETATM   22  C   UNL     1      22.773   4.577  13.521  1.00  0.00     0.258 C 
HETATM   23  O   UNL     1      23.408   4.225  12.548  1.00  0.00    -0.265 OA
BRANCH  22  24
HETATM   24  O   UNL     1      23.312   4.939  14.726  1.00  0.00    -0.319 OA
BRANCH  24  25
HETATM   25  C   UNL     1      24.613   4.379  14.964  1.00  0.00     0.212 C 
BRANCH  25  26
HETATM   26  C   UNL     1      25.717   5.108  14.192  1.00  0.00     0.166 C 
BRANCH  26  27
HETATM   27  C   UNL     1      25.808   6.591  14.560  1.00  0.00     0.198 C 
BRANCH  27  28
HETATM   28  O   UNL     1      26.087   6.741  15.946  1.00  0.00    -0.398 OA
HETATM   29  H   UNL     1      25.297   6.501  16.460  1.00  0.00     0.209 HD
ENDBRANCH  27  28
ENDBRANCH  26  27
BRANCH  26  30
HETATM   30  O   UNL     1      26.952   4.433  14.402  1.00  0.00    -0.391 OA
HETATM   31  H   UNL     1      27.273   4.602  15.308  1.00  0.00     0.210 HD
ENDBRANCH  26  30
ENDBRANCH  25  26
ENDBRANCH  24  25
ENDBRANCH  22  24
ENDBRANCH  21  22
ENDBRANCH  20  21
ENDBRANCH  19  20
ENDBRANCH  18  19
ENDBRANCH  17  18
ENDBRANCH   1  17
TORSDOF 26
