REMARK  12 active torsions:
REMARK  status: ('A' for Active; 'I' for Inactive)
REMARK    1  A    between atoms: C_3  and  N_17 
REMARK    2  A    between atoms: C_4  and  N_14 
REMARK    3  A    between atoms: C_6  and  N_7 
REMARK    4  A    between atoms: N_7  and  C_8 
REMARK    5  A    between atoms: N_7  and  C_11 
REMARK    6  A    between atoms: C_8  and  C_9 
REMARK    7  A    between atoms: C_9  and  O_10 
REMARK    8  A    between atoms: C_11  and  C_12 
REMARK    9  A    between atoms: C_12  and  O_13 
REMARK   10  A    between atoms: N_17  and  C_18 
REMARK   11  A    between atoms: C_18  and  C_19 
REMARK   12  A    between atoms: C_19  and  O_20 
ROOT
HETATM    1  C   UNL     1       1.369  -0.190  -0.011  1.00  0.00     0.025 A 
HETATM    2  C   UNL     1       0.535  -1.316  -0.087  1.00  0.00     0.028 A 
HETATM    3  C   UNL     1      -0.863  -1.213  -0.057  1.00  0.00     0.041 A 
HETATM    4  C   UNL     1      -1.375   0.106   0.024  1.00  0.00     0.125 A 
HETATM    5  C   UNL     1      -0.525   1.242   0.108  1.00  0.00     0.061 A 
HETATM    6  C   UNL     1       0.865   1.111   0.070  1.00  0.00     0.013 A 
ENDROOT
BRANCH   6   7
HETATM    7  N   UNL     1       1.770   2.197   0.069  1.00  0.00    -0.279 NA
BRANCH   7   8
HETATM    8  C   UNL     1       1.343   3.529   0.581  1.00  0.00     0.121 C 
BRANCH   8   9
HETATM    9  C   UNL     1       1.124   3.565   2.099  1.00  0.00     0.179 C 
BRANCH   9  10
HETATM   10  O   UNL     1       2.308   3.222   2.815  1.00  0.00    -0.400 OA
HETATM   11  H   UNL     1       2.393   2.256   2.740  1.00  0.00     0.209 HD
ENDBRANCH   9  10
ENDBRANCH   8   9
ENDBRANCH   7   8
BRANCH   7  12
HETATM   12  C   UNL     1       2.477   2.308  -1.253  1.00  0.00     0.121 C 
BRANCH  12  13
HETATM   13  C   UNL     1       3.988   2.470  -1.049  1.00  0.00     0.179 C 
BRANCH  13  14
HETATM   14  O   UNL     1       4.528   1.342  -0.363  1.00  0.00    -0.400 OA
HETATM   15  H   UNL     1       4.001   1.282   0.455  1.00  0.00     0.209 HD
ENDBRANCH  13  14
ENDBRANCH  12  13
ENDBRANCH   7  12
ENDBRANCH   6   7
BRANCH   4  16
HETATM   16  N   UNL     1      -2.828   0.355   0.034  1.00  0.00    -0.114 N 
HETATM   17  O   UNL     1      -3.597  -0.615   0.132  1.00  0.00    -0.532 OA
HETATM   18  O   UNL     1      -3.211   1.533  -0.040  1.00  0.00    -0.532 OA
ENDBRANCH   4  16
BRANCH   3  19
HETATM   19  N   UNL     1      -1.673  -2.346  -0.271  1.00  0.00    -0.289 NA
HETATM   20  H   UNL     1      -2.645  -2.156   0.015  1.00  0.00     0.127 HD
BRANCH  19  21
HETATM   21  C   UNL     1      -1.221  -3.670   0.183  1.00  0.00     0.118 C 
BRANCH  21  22
HETATM   22  C   UNL     1      -2.329  -4.705  -0.066  1.00  0.00     0.178 C 
BRANCH  22  23
HETATM   23  O   UNL     1      -2.652  -4.769  -1.454  1.00  0.00    -0.400 OA
HETATM   24  H   UNL     1      -2.692  -3.843  -1.762  1.00  0.00     0.209 HD
ENDBRANCH  22  23
ENDBRANCH  21  22
ENDBRANCH  19  21
ENDBRANCH   3  19
TORSDOF 12
