REMARK WARNING: 32 MAX_TORS EXCEEDED!!!
REMARK  304 active torsions:
REMARK  status: ('A' for Active; 'I' for Inactive)
REMARK    1  A    between atoms: C_1  and  C_4 
REMARK    2  A    between atoms: C_1  and  C_5 
REMARK    3  A    between atoms: C_1  and  C_6 
REMARK    4  A    between atoms: C_1  and  N_8 
REMARK    5  A    between atoms: C_1  and  C_9 
REMARK    6  A    between atoms: C_1  and  C_10 
REMARK    7  A    between atoms: C_1  and  C_11 
REMARK    8  A    between atoms: C_1  and  C_12 
REMARK    9  A    between atoms: C_1  and  C_13 
REMARK   10  A    between atoms: C_1  and  C_14 
REMARK   11  A    between atoms: C_1  and  N_15 
REMARK   12  A    between atoms: C_1  and  C_16 
REMARK   13  A    between atoms: C_1  and  C_17 
REMARK   14  A    between atoms: C_1  and  C_18 
REMARK   15  A    between atoms: C_1  and  C_19 
REMARK   16  A    between atoms: C_1  and  C_20 
REMARK   17  A    between atoms: C_1  and  C_21 
REMARK   18  A    between atoms: C_1  and  C_22 
REMARK   19  A    between atoms: C_1  and  C_23 
REMARK   20  A    between atoms: C_1  and  C_24 
REMARK   21  A    between atoms: C_1  and  C_25 
REMARK   22  A    between atoms: C_1  and  CL_26 
REMARK   23  A    between atoms: C_1  and  CL_27 
REMARK   24  A    between atoms: C_1  and  P_29 
REMARK   25  A    between atoms: C_2  and  C_5 
REMARK   26  A    between atoms: C_2  and  C_6 
REMARK   27  A    between atoms: C_2  and  C_9 
REMARK   28  A    between atoms: C_2  and  C_10 
REMARK   29  A    between atoms: C_2  and  C_11 
REMARK   30  A    between atoms: C_2  and  C_12 
REMARK   31  A    between atoms: C_2  and  C_13 
REMARK   32  A    between atoms: C_2  and  C_14 
REMARK   33  A    between atoms: C_2  and  N_15 
REMARK   34  A    between atoms: C_2  and  C_16 
REMARK   35  A    between atoms: C_2  and  C_17 
REMARK   36  A    between atoms: C_2  and  C_18 
REMARK   37  A    between atoms: C_2  and  C_19 
REMARK   38  A    between atoms: C_2  and  C_20 
REMARK   39  A    between atoms: C_2  and  C_21 
REMARK   40  A    between atoms: C_2  and  C_22 
REMARK   41  A    between atoms: C_2  and  C_23 
REMARK   42  A    between atoms: C_2  and  C_24 
REMARK   43  A    between atoms: C_2  and  C_25 
REMARK   44  A    between atoms: C_2  and  CL_26 
REMARK   45  A    between atoms: C_2  and  CL_27 
REMARK   46  A    between atoms: C_3  and  C_6 
REMARK   47  A    between atoms: C_3  and  C_7 
REMARK   48  A    between atoms: C_3  and  N_8 
REMARK   49  A    between atoms: C_3  and  C_9 
REMARK   50  A    between atoms: C_3  and  C_11 
REMARK   51  A    between atoms: C_3  and  C_12 
REMARK   52  A    between atoms: C_3  and  C_13 
REMARK   53  A    between atoms: C_3  and  C_14 
REMARK   54  A    between atoms: C_3  and  N_15 
REMARK   55  A    between atoms: C_3  and  C_16 
REMARK   56  A    between atoms: C_3  and  C_17 
REMARK   57  A    between atoms: C_3  and  C_18 
REMARK   58  A    between atoms: C_3  and  C_19 
REMARK   59  A    between atoms: C_3  and  C_20 
REMARK   60  A    between atoms: C_3  and  C_21 
REMARK   61  A    between atoms: C_3  and  C_22 
REMARK   62  A    between atoms: C_3  and  C_23 
REMARK   63  A    between atoms: C_3  and  C_24 
REMARK   64  A    between atoms: C_3  and  C_25 
REMARK   65  A    between atoms: C_3  and  CL_26 
REMARK   66  A    between atoms: C_3  and  CL_27 
REMARK   67  A    between atoms: C_4  and  C_7 
REMARK   68  A    between atoms: C_4  and  N_8 
REMARK   69  A    between atoms: C_4  and  C_9 
REMARK   70  A    between atoms: C_4  and  C_12 
REMARK   71  A    between atoms: C_4  and  C_13 
REMARK   72  A    between atoms: C_4  and  C_14 
REMARK   73  A    between atoms: C_4  and  N_15 
REMARK   74  A    between atoms: C_4  and  C_16 
REMARK   75  A    between atoms: C_4  and  C_17 
REMARK   76  A    between atoms: C_4  and  C_18 
REMARK   77  A    between atoms: C_4  and  C_19 
REMARK   78  A    between atoms: C_4  and  C_21 
REMARK   79  A    between atoms: C_4  and  C_22 
REMARK   80  A    between atoms: C_4  and  C_23 
REMARK   81  A    between atoms: C_4  and  C_24 
REMARK   82  A    between atoms: C_4  and  C_25 
REMARK   83  A    between atoms: C_4  and  CL_26 
REMARK   84  A    between atoms: C_4  and  CL_27 
REMARK   85  A    between atoms: C_5  and  C_7 
REMARK   86  A    between atoms: C_5  and  N_8 
REMARK   87  A    between atoms: C_5  and  C_10 
REMARK   88  A    between atoms: C_5  and  C_11 
REMARK   89  A    between atoms: C_5  and  C_12 
REMARK   90  A    between atoms: C_5  and  C_13 
REMARK   91  A    between atoms: C_5  and  C_14 
REMARK   92  A    between atoms: C_5  and  N_15 
REMARK   93  A    between atoms: C_5  and  C_16 
REMARK   94  A    between atoms: C_5  and  C_17 
REMARK   95  A    between atoms: C_5  and  C_18 
REMARK   96  A    between atoms: C_5  and  C_19 
REMARK   97  A    between atoms: C_5  and  C_20 
REMARK   98  A    between atoms: C_5  and  C_21 
REMARK   99  A    between atoms: C_5  and  C_22 
REMARK  100  A    between atoms: C_5  and  C_23 
REMARK  101  A    between atoms: C_5  and  C_24 
REMARK  102  A    between atoms: C_5  and  C_25 
REMARK  103  A    between atoms: C_5  and  CL_26 
REMARK  104  A    between atoms: C_5  and  CL_27 
REMARK  105  A    between atoms: C_6  and  C_7 
REMARK  106  A    between atoms: C_6  and  N_8 
REMARK  107  A    between atoms: C_6  and  C_10 
REMARK  108  A    between atoms: C_6  and  C_11 
REMARK  109  A    between atoms: C_6  and  C_12 
REMARK  110  A    between atoms: C_6  and  C_13 
REMARK  111  A    between atoms: C_6  and  C_14 
REMARK  112  A    between atoms: C_6  and  N_15 
REMARK  113  A    between atoms: C_6  and  C_16 
REMARK  114  A    between atoms: C_6  and  C_17 
REMARK  115  A    between atoms: C_6  and  C_18 
REMARK  116  A    between atoms: C_6  and  C_19 
REMARK  117  A    between atoms: C_6  and  C_20 
REMARK  118  A    between atoms: C_6  and  C_21 
REMARK  119  A    between atoms: C_6  and  C_22 
REMARK  120  A    between atoms: C_6  and  C_23 
REMARK  121  A    between atoms: C_6  and  C_24 
REMARK  122  A    between atoms: C_6  and  C_25 
REMARK  123  A    between atoms: C_6  and  CL_26 
REMARK  124  A    between atoms: C_6  and  CL_27 
REMARK  125  A    between atoms: C_7  and  C_9 
REMARK  126  A    between atoms: C_7  and  C_10 
REMARK  127  A    between atoms: C_7  and  C_11 
REMARK  128  A    between atoms: C_7  and  C_12 
REMARK  129  A    between atoms: C_7  and  C_13 
REMARK  130  A    between atoms: C_7  and  C_14 
REMARK  131  A    between atoms: C_7  and  N_15 
REMARK  132  A    between atoms: C_7  and  C_16 
REMARK  133  A    between atoms: C_7  and  C_17 
REMARK  134  A    between atoms: C_7  and  C_18 
REMARK  135  A    between atoms: C_7  and  C_19 
REMARK  136  A    between atoms: C_7  and  C_20 
REMARK  137  A    between atoms: C_7  and  C_21 
REMARK  138  A    between atoms: C_7  and  C_22 
REMARK  139  A    between atoms: C_7  and  C_23 
REMARK  140  A    between atoms: C_7  and  C_24 
REMARK  141  A    between atoms: C_7  and  C_25 
REMARK  142  A    between atoms: C_7  and  CL_26 
REMARK  143  A    between atoms: C_7  and  CL_27 
REMARK  144  A    between atoms: N_8  and  C_9 
REMARK  145  A    between atoms: N_8  and  C_10 
REMARK  146  A    between atoms: N_8  and  C_11 
REMARK  147  A    between atoms: N_8  and  C_12 
REMARK  148  A    between atoms: N_8  and  C_13 
REMARK  149  A    between atoms: N_8  and  C_14 
REMARK  150  A    between atoms: N_8  and  N_15 
REMARK  151  A    between atoms: N_8  and  C_16 
REMARK  152  A    between atoms: N_8  and  C_17 
REMARK  153  A    between atoms: N_8  and  C_18 
REMARK  154  A    between atoms: N_8  and  C_19 
REMARK  155  A    between atoms: N_8  and  C_20 
REMARK  156  A    between atoms: N_8  and  C_21 
REMARK  157  A    between atoms: N_8  and  C_22 
REMARK  158  A    between atoms: N_8  and  C_23 
REMARK  159  A    between atoms: N_8  and  C_24 
REMARK  160  A    between atoms: N_8  and  C_25 
REMARK  161  A    between atoms: N_8  and  CL_26 
REMARK  162  A    between atoms: N_8  and  CL_27 
REMARK  163  A    between atoms: C_9  and  C_10 
REMARK  164  A    between atoms: C_9  and  C_11 
REMARK  165  A    between atoms: C_9  and  C_12 
REMARK  166  A    between atoms: C_9  and  C_13 
REMARK  167  A    between atoms: C_9  and  C_14 
REMARK  168  A    between atoms: C_9  and  N_15 
REMARK  169  A    between atoms: C_9  and  C_16 
REMARK  170  A    between atoms: C_9  and  C_17 
REMARK  171  A    between atoms: C_9  and  C_18 
REMARK  172  A    between atoms: C_9  and  C_19 
REMARK  173  A    between atoms: C_9  and  C_20 
REMARK  174  A    between atoms: C_9  and  C_21 
REMARK  175  A    between atoms: C_9  and  C_22 
REMARK  176  A    between atoms: C_9  and  C_23 
REMARK  177  A    between atoms: C_9  and  C_24 
REMARK  178  A    between atoms: C_9  and  C_25 
REMARK  179  A    between atoms: C_9  and  CL_26 
REMARK  180  A    between atoms: C_9  and  CL_27 
REMARK  181  A    between atoms: C_10  and  C_13 
REMARK  182  A    between atoms: C_10  and  C_14 
REMARK  183  A    between atoms: C_10  and  N_15 
REMARK  184  A    between atoms: C_10  and  C_16 
REMARK  185  A    between atoms: C_10  and  C_18 
REMARK  186  A    between atoms: C_10  and  C_19 
REMARK  187  A    between atoms: C_10  and  C_22 
REMARK  188  A    between atoms: C_10  and  C_23 
REMARK  189  A    between atoms: C_10  and  C_24 
REMARK  190  A    between atoms: C_10  and  CL_26 
REMARK  191  A    between atoms: C_10  and  CL_27 
REMARK  192  A    between atoms: C_11  and  C_14 
REMARK  193  A    between atoms: C_11  and  N_15 
REMARK  194  A    between atoms: C_11  and  C_16 
REMARK  195  A    between atoms: C_11  and  C_18 
REMARK  196  A    between atoms: C_11  and  C_19 
REMARK  197  A    between atoms: C_11  and  C_20 
REMARK  198  A    between atoms: C_11  and  C_21 
REMARK  199  A    between atoms: C_11  and  C_22 
REMARK  200  A    between atoms: C_11  and  C_23 
REMARK  201  A    between atoms: C_11  and  C_24 
REMARK  202  A    between atoms: C_11  and  C_25 
REMARK  203  A    between atoms: C_11  and  CL_26 
REMARK  204  A    between atoms: C_11  and  CL_27 
REMARK  205  A    between atoms: C_12  and  N_15 
REMARK  206  A    between atoms: C_12  and  C_16 
REMARK  207  A    between atoms: C_12  and  C_17 
REMARK  208  A    between atoms: C_12  and  C_18 
REMARK  209  A    between atoms: C_12  and  C_20 
REMARK  210  A    between atoms: C_12  and  C_21 
REMARK  211  A    between atoms: C_12  and  C_22 
REMARK  212  A    between atoms: C_12  and  C_23 
REMARK  213  A    between atoms: C_12  and  C_24 
REMARK  214  A    between atoms: C_12  and  C_25 
REMARK  215  A    between atoms: C_12  and  CL_26 
REMARK  216  A    between atoms: C_12  and  CL_27 
REMARK  217  A    between atoms: C_13  and  C_17 
REMARK  218  A    between atoms: C_13  and  C_18 
REMARK  219  A    between atoms: C_13  and  C_20 
REMARK  220  A    between atoms: C_13  and  C_21 
REMARK  221  A    between atoms: C_13  and  C_22 
REMARK  222  A    between atoms: C_13  and  C_23 
REMARK  223  A    between atoms: C_13  and  C_24 
REMARK  224  A    between atoms: C_13  and  C_25 
REMARK  225  A    between atoms: C_13  and  CL_26 
REMARK  226  A    between atoms: C_13  and  CL_27 
REMARK  227  A    between atoms: C_14  and  C_17 
REMARK  228  A    between atoms: C_14  and  C_19 
REMARK  229  A    between atoms: C_14  and  C_20 
REMARK  230  A    between atoms: C_14  and  C_21 
REMARK  231  A    between atoms: C_14  and  C_22 
REMARK  232  A    between atoms: C_14  and  C_23 
REMARK  233  A    between atoms: C_14  and  C_24 
REMARK  234  A    between atoms: C_14  and  C_25 
REMARK  235  A    between atoms: C_14  and  CL_26 
REMARK  236  A    between atoms: C_14  and  CL_27 
REMARK  237  A    between atoms: N_15  and  C_16 
REMARK  238  A    between atoms: N_15  and  C_17 
REMARK  239  A    between atoms: N_15  and  C_18 
REMARK  240  A    between atoms: N_15  and  C_19 
REMARK  241  A    between atoms: N_15  and  C_20 
REMARK  242  A    between atoms: N_15  and  C_21 
REMARK  243  A    between atoms: N_15  and  C_22 
REMARK  244  A    between atoms: N_15  and  C_23 
REMARK  245  A    between atoms: N_15  and  C_24 
REMARK  246  A    between atoms: N_15  and  C_25 
REMARK  247  A    between atoms: N_15  and  CL_26 
REMARK  248  A    between atoms: N_15  and  CL_27 
REMARK  249  A    between atoms: C_16  and  C_17 
REMARK  250  A    between atoms: C_16  and  C_19 
REMARK  251  A    between atoms: C_16  and  C_20 
REMARK  252  A    between atoms: C_16  and  C_21 
REMARK  253  A    between atoms: C_16  and  C_22 
REMARK  254  A    between atoms: C_16  and  C_23 
REMARK  255  A    between atoms: C_16  and  C_24 
REMARK  256  A    between atoms: C_16  and  C_25 
REMARK  257  A    between atoms: C_16  and  CL_26 
REMARK  258  A    between atoms: C_16  and  CL_27 
REMARK  259  A    between atoms: C_17  and  C_18 
REMARK  260  A    between atoms: C_17  and  C_19 
REMARK  261  A    between atoms: C_17  and  C_20 
REMARK  262  A    between atoms: C_17  and  C_21 
REMARK  263  A    between atoms: C_17  and  C_22 
REMARK  264  A    between atoms: C_17  and  C_23 
REMARK  265  A    between atoms: C_17  and  C_24 
REMARK  266  A    between atoms: C_17  and  C_25 
REMARK  267  A    between atoms: C_17  and  CL_26 
REMARK  268  A    between atoms: C_17  and  CL_27 
REMARK  269  A    between atoms: C_18  and  C_19 
REMARK  270  A    between atoms: C_18  and  C_20 
REMARK  271  A    between atoms: C_18  and  C_21 
REMARK  272  A    between atoms: C_18  and  C_22 
REMARK  273  A    between atoms: C_18  and  C_23 
REMARK  274  A    between atoms: C_18  and  C_24 
REMARK  275  A    between atoms: C_18  and  C_25 
REMARK  276  A    between atoms: C_18  and  CL_26 
REMARK  277  A    between atoms: C_18  and  CL_27 
REMARK  278  A    between atoms: C_19  and  C_20 
REMARK  279  A    between atoms: C_19  and  C_21 
REMARK  280  A    between atoms: C_19  and  C_22 
REMARK  281  A    between atoms: C_19  and  C_23 
REMARK  282  A    between atoms: C_19  and  C_24 
REMARK  283  A    between atoms: C_19  and  C_25 
REMARK  284  A    between atoms: C_19  and  CL_26 
REMARK  285  A    between atoms: C_19  and  CL_27 
REMARK  286  A    between atoms: C_20  and  C_23 
REMARK  287  A    between atoms: C_20  and  C_24 
REMARK  288  A    between atoms: C_21  and  C_24 
REMARK  289  A    between atoms: C_21  and  C_25 
REMARK  290  A    between atoms: C_21  and  CL_26 
REMARK  291  A    between atoms: C_22  and  C_25 
REMARK  292  A    between atoms: C_22  and  CL_26 
REMARK  293  A    between atoms: C_22  and  CL_27 
REMARK  294  A    between atoms: C_23  and  C_25 
REMARK  295  A    between atoms: C_23  and  CL_26 
REMARK  296  A    between atoms: C_23  and  CL_27 
REMARK  297  A    between atoms: C_24  and  C_25 
REMARK  298  A    between atoms: C_24  and  CL_26 
REMARK  299  A    between atoms: C_24  and  CL_27 
REMARK  300  A    between atoms: C_25  and  CL_27 
REMARK  301  A    between atoms: CL_26  and  CL_27 
REMARK  302  A    between atoms: O_30  and  O_31 
REMARK  303  A    between atoms: O_30  and  O_32 
REMARK  304  A    between atoms: O_31  and  O_32 
ROOT
HETATM    1  C   UNL     1       0.000   0.000   0.000  1.00  0.00     0.059 C 
HETATM    2  C   UNL     1       0.000   0.000   0.000  1.00  0.00     0.056 C 
HETATM    3  C   UNL     1       0.000   0.000   0.000  1.00  0.00     0.056 C 
HETATM    4  C   UNL     1       0.000   0.000   0.000  1.00  0.00     0.056 C 
HETATM    5  C   UNL     1       0.000   0.000   0.000  1.00  0.00     0.056 C 
HETATM    6  C   UNL     1       0.000   0.000   0.000  1.00  0.00     0.056 C 
HETATM    7  C   UNL     1       0.000   0.000   0.000  1.00  0.00     0.056 C 
HETATM    8  N   UNL     1       0.000   0.000   0.000  1.00  0.00     0.000 N 
HETATM    9  C   UNL     1       0.000   0.000   0.000  1.00  0.00     0.056 C 
HETATM   10  C   UNL     1       0.000   0.000   0.000  1.00  0.00     0.056 C 
HETATM   11  C   UNL     1       0.000   0.000   0.000  1.00  0.00     0.056 C 
HETATM   12  C   UNL     1       0.000   0.000   0.000  1.00  0.00     0.056 C 
HETATM   13  C   UNL     1       0.000   0.000   0.000  1.00  0.00     0.056 C 
HETATM   14  C   UNL     1       0.000   0.000   0.000  1.00  0.00     0.056 C 
HETATM   15  N   UNL     1       0.000   0.000   0.000  1.00  0.00     0.000 N 
HETATM   16  C   UNL     1       0.000   0.000   0.000  1.00  0.00     0.056 C 
HETATM   17  C   UNL     1       0.000   0.000   0.000  1.00  0.00     0.056 C 
HETATM   18  C   UNL     1       0.000   0.000   0.000  1.00  0.00     0.056 C 
HETATM   19  C   UNL     1       0.000   0.000   0.000  1.00  0.00     0.056 C 
HETATM   20  C   UNL     1       0.000   0.000   0.000  1.00  0.00     0.056 C 
HETATM   21  C   UNL     1       0.000   0.000   0.000  1.00  0.00     0.056 C 
HETATM   22  C   UNL     1       0.000   0.000   0.000  1.00  0.00     0.056 C 
HETATM   23  C   UNL     1       0.000   0.000   0.000  1.00  0.00     0.056 C 
HETATM   24  C   UNL     1       0.000   0.000   0.000  1.00  0.00     0.056 C 
HETATM   25  C   UNL     1       0.000   0.000   0.000  1.00  0.00     0.056 C 
HETATM   26 CL   UNL     1       0.000   0.000   0.000  1.00  0.00    -0.631 Cl
HETATM   27 CL   UNL     1       0.000   0.000   0.000  1.00  0.00    -0.631 Cl
ENDROOT
BRANCH   1  28
HETATM   28  P   UNL     2       0.000   0.000   0.000  1.00  0.00    -0.023 P 
HETATM   29  O   UNL     2       0.000   0.000   0.000  1.00  0.00     0.000 OA
HETATM   30  O   UNL     2       0.000   0.000   0.000  1.00  0.00     0.000 OA
HETATM   31  O   UNL     2       0.000   0.000   0.000  1.00  0.00     0.000 OA
HETATM   32  O   UNL     2       0.000   0.000   0.000  1.00  0.00     0.000 OA
ENDBRANCH   1  28
TORSDOF 304
