REMARK  6 active torsions:
REMARK  status: ('A' for Active; 'I' for Inactive)
REMARK    1  A    between atoms: C_3  and  N_11 
REMARK    2  A    between atoms: C_4  and  N_8 
REMARK    3  A    between atoms: C_6  and  N_7 
REMARK    4  A    between atoms: N_11  and  C_12 
REMARK    5  A    between atoms: C_12  and  C_13 
REMARK    6  A    between atoms: C_13  and  O_14 
ROOT
HETATM    1  C   UNL     1       0.252  -1.134  -0.051  1.00  0.00     0.025 A 
HETATM    2  C   UNL     1      -1.146  -1.073   0.014  1.00  0.00     0.028 A 
HETATM    3  C   UNL     1      -1.846   0.142   0.118  1.00  0.00     0.041 A 
HETATM    4  C   UNL     1      -1.056   1.317   0.042  1.00  0.00     0.125 A 
HETATM    5  C   UNL     1       0.358   1.247  -0.031  1.00  0.00     0.061 A 
HETATM    6  C   UNL     1       1.017   0.021  -0.014  1.00  0.00     0.008 A 
ENDROOT
BRANCH   3   7
HETATM    7  N   UNL     1      -3.266   0.123   0.142  1.00  0.00    -0.289 NA
HETATM    8  H   UNL     1      -3.639   1.040   0.421  1.00  0.00     0.127 HD
BRANCH   7   9
HETATM    9  C   UNL     1      -3.891  -0.993   0.885  1.00  0.00     0.118 C 
BRANCH   9  10
HETATM   10  C   UNL     1      -5.420  -0.892   0.887  1.00  0.00     0.178 C 
BRANCH  10  11
HETATM   11  O   UNL     1      -5.930  -0.960  -0.442  1.00  0.00    -0.400 OA
HETATM   12  H   UNL     1      -5.325  -0.422  -0.988  1.00  0.00     0.209 HD
ENDBRANCH  10  11
ENDBRANCH   9  10
ENDBRANCH   7   9
ENDBRANCH   3   7
BRANCH   4  13
HETATM   13  N   UNL     1      -1.648   2.665   0.068  1.00  0.00    -0.114 N 
HETATM   14  O   UNL     1      -2.876   2.769   0.227  1.00  0.00    -0.532 OA
HETATM   15  O   UNL     1      -0.884   3.639  -0.038  1.00  0.00    -0.532 OA
ENDBRANCH   4  13
BRANCH   6  16
HETATM   16  N   UNL     1       2.399  -0.052  -0.209  1.00  0.00    -0.303 NA
HETATM   17  H   UNL     1       2.914   0.764   0.110  1.00  0.00     0.124 HD
HETATM   18  H   UNL     1       2.820  -0.922   0.102  1.00  0.00     0.124 HD
ENDBRANCH   6  16
TORSDOF 6
