REMARK  5 active torsions:
REMARK  status: ('A' for Active; 'I' for Inactive)
REMARK    1  A    between atoms: O_2  and  C_3 
REMARK    2  A    between atoms: C_4  and  O_22 
REMARK    3  A    between atoms: C_6  and  C_9 
REMARK    4  A    between atoms: C_14  and  O_21 
REMARK    5  A    between atoms: C_16  and  O_20 
ROOT
HETATM    1  C   UNL     1       4.551   5.678  -0.485  1.00  0.00     0.169 C 
HETATM    2  C   UNL     1       4.354   7.115  -0.009  1.00  0.00     0.121 C 
HETATM    3  C   UNL     1       2.941   7.379   0.432  1.00  0.00     0.167 C 
HETATM    4  O   UNL     1       2.639   8.311   1.165  1.00  0.00    -0.292 OA
HETATM    5  C   UNL     1       1.900   6.494  -0.110  1.00  0.00     0.076 A 
HETATM    6  C   UNL     1       0.549   6.647   0.236  1.00  0.00     0.085 A 
HETATM    7  C   UNL     1      -0.373   5.679  -0.142  1.00  0.00     0.074 A 
HETATM    8  C   UNL     1       0.052   4.598  -0.910  1.00  0.00     0.071 A 
HETATM    9  C   UNL     1       1.352   4.516  -1.383  1.00  0.00     0.074 A 
HETATM   10  C   UNL     1       2.281   5.454  -0.959  1.00  0.00     0.089 A 
HETATM   11  O   UNL     1       3.553   5.307  -1.442  1.00  0.00    -0.340 OA
ENDROOT
BRANCH   1  12
HETATM   12  C   UNL     1       4.788   4.521   0.477  1.00  0.00    -0.026 C 
HETATM   13  C   UNL     1       5.219   3.304  -0.089  1.00  0.00     0.049 C 
HETATM   14  C   UNL     1       5.699   2.258   0.700  1.00  0.00     0.099 C 
HETATM   15  C   UNL     1       5.701   2.360   2.086  1.00  0.00     0.101 C 
HETATM   16  C   UNL     1       5.145   3.516   2.655  1.00  0.00     0.040 C 
HETATM   17  C   UNL     1       4.696   4.592   1.867  1.00  0.00     0.012 C 
BRANCH  14  18
HETATM   18  O   UNL     1       6.250   1.215   0.016  1.00  0.00    -0.358 OA
HETATM   19  H   UNL     1       7.211   1.321   0.136  1.00  0.00     0.217 HD
ENDBRANCH  14  18
BRANCH  15  20
HETATM   20  O   UNL     1       6.245   1.502   3.000  1.00  0.00    -0.353 OA
HETATM   21  C   UNL     1       6.576   0.177   2.607  1.00  0.00     0.210 C 
ENDBRANCH  15  20
ENDBRANCH   1  12
BRANCH   6  22
HETATM   22  O   UNL     1       0.072   7.730   0.920  1.00  0.00    -0.360 OA
HETATM   23  H   UNL     1       0.814   8.362   1.055  1.00  0.00     0.217 HD
ENDBRANCH   6  22
BRANCH   8  24
HETATM   24  O   UNL     1      -0.793   3.571  -1.204  1.00  0.00    -0.361 OA
HETATM   25  H   UNL     1      -1.405   3.472  -0.455  1.00  0.00     0.217 HD
ENDBRANCH   8  24
TORSDOF 5
