REMARK  24 active torsions:
REMARK  status: ('A' for Active; 'I' for Inactive)
REMARK    1  A    between atoms: CG1_2  and  CB_3 
REMARK    2  A    between atoms: CB_3  and  CA_5 
REMARK    3  A    between atoms: CA_5  and  C_6 
REMARK    4  A    between atoms: CA_5  and  N_8 
REMARK       I    between atoms: C_6  and  N_11 
REMARK    5  A    between atoms: N_11  and  CA_12 
REMARK    6  A    between atoms: CA_12  and  CB_13 
REMARK    7  A    between atoms: CA_12  and  C_18 
REMARK    8  A    between atoms: CB_13  and  CG_14 
REMARK    9  A    between atoms: CG_14  and  CD_15 
REMARK       I    between atoms: CD_15  and  NE2_17 
REMARK       I    between atoms: C_18  and  N_23 
REMARK   10  A    between atoms: N_23  and  CA_24 
REMARK   11  A    between atoms: CA_24  and  C_26 
REMARK       I    between atoms: C_26  and  N_29 
REMARK   12  A    between atoms: N_29  and  CA_30 
REMARK   13  A    between atoms: CA_30  and  CB_31 
REMARK   14  A    between atoms: CA_30  and  C_33 
REMARK   15  A    between atoms: CB_31  and  SG_32 
REMARK       I    between atoms: C_33  and  N_37 
REMARK   16  A    between atoms: N_37  and  CA_38 
REMARK   17  A    between atoms: CA_38  and  CB_39 
REMARK   18  A    between atoms: CA_38  and  C_47 
REMARK   19  A    between atoms: CB_39  and  CG_40 
REMARK   20  A    between atoms: CG_40  and  CD_41 
REMARK   21  A    between atoms: CD_41  and  NE_42 
REMARK       I    between atoms: NE_42  and  CZ_44 
REMARK       I    between atoms: CZ_44  and  NH2_46 
REMARK       I    between atoms: C_47  and  N_54 
REMARK   22  A    between atoms: N_54  and  CA_55 
REMARK   23  A    between atoms: CA_55  and  C_56 
REMARK   24  A    between atoms: C_56  and  OXT_58 
ROOT
ATOM      1  C   ALA A   3       5.060   7.814  -0.791  1.00  0.00     0.240 C 
ATOM      2  O   ALA A   3       5.788   8.455  -1.545  1.00  0.00    -0.271 OA
ATOM      3  N   CYS A   4       4.689   8.273   0.448  1.00  0.00    -0.345 N 
ATOM      4  H   CYS A   4       4.134   7.636   1.020  1.00  0.00     0.163 HD
ENDROOT
BRANCH   3   5
ATOM      5  CA  CYS A   4       5.125   9.493   1.102  1.00  0.00     0.185 C 
BRANCH   5   6
ATOM      6  CB  CYS A   4       3.895  10.410   1.383  1.00  0.00     0.105 C 
BRANCH   6   7
ATOM      7  SG  CYS A   4       2.787  10.757  -0.038  1.00  0.00    -0.180 SA
ATOM      8  HG  CYS A   4       3.722  10.721  -0.998  1.00  0.00     0.101 HD
ENDBRANCH   6   7
ENDBRANCH   5   6
BRANCH   5   9
ATOM      9  C   CYS A   4       5.920   9.312   2.479  1.00  0.00     0.241 C 
ATOM     10  O   CYS A   4       5.842  10.239   3.293  1.00  0.00    -0.271 OA
ATOM     11  N   ARG A   5       6.781   8.224   2.693  1.00  0.00    -0.346 N 
ATOM     12  H   ARG A   5       6.713   7.465   2.024  1.00  0.00     0.163 HD
BRANCH  11  13
ATOM     13  CA  ARG A   5       7.749   7.964   3.915  1.00  0.00     0.176 C 
BRANCH  13  14
ATOM     14  CB  ARG A   5       7.471   9.005   5.004  1.00  0.00     0.036 C 
BRANCH  14  15
ATOM     15  CG  ARG A   5       8.224   8.760   6.281  1.00  0.00     0.022 C 
BRANCH  15  16
ATOM     16  CD  ARG A   5       8.007   9.815   7.351  1.00  0.00     0.122 C 
BRANCH  16  17
ATOM     17  NE  ARG A   5       8.754   9.308   8.493  1.00  0.00    -0.367 N 
ATOM     18  CZ  ARG A   5       8.711   9.932   9.593  1.00  0.00     0.143 C 
ATOM     19  NH1 ARG A   5       8.069  11.079   9.902  1.00  0.00    -0.376 N 
ATOM     20  NH2 ARG A   5       9.375   9.389  10.651  1.00  0.00    -0.274 NA
ATOM     21 HH11 ARG A   5       7.721  11.611   9.113  1.00  0.00     0.158 HD
ATOM     22 HH12 ARG A   5       8.434  11.656  10.645  1.00  0.00     0.158 HD
ATOM     23 HH21 ARG A   5       9.884   8.570  10.349  1.00  0.00     0.127 HD
ATOM     24 HH22 ARG A   5       9.938  10.020  11.219  1.00  0.00     0.127 HD
ATOM     25  HE  ARG A   5       9.308   8.456   8.407  1.00  0.00     0.162 HD
ENDBRANCH  16  17
ENDBRANCH  15  16
ENDBRANCH  14  15
ENDBRANCH  13  14
BRANCH  13  26
ATOM     26  C   ARG A   5       7.771   6.364   4.380  1.00  0.00     0.240 C 
ATOM     27  O   ARG A   5       7.220   5.589   3.592  1.00  0.00    -0.271 OA
ATOM     28  N   GLY A   6       8.374   5.800   5.524  1.00  0.00    -0.349 N 
ATOM     29  H   GLY A   6       8.969   6.423   6.048  1.00  0.00     0.163 HD
BRANCH  28  30
ATOM     30  CA  GLY A   6       8.077   4.486   6.443  1.00  0.00     0.232 C 
BRANCH  30  31
ATOM     31  C   GLY A   6       7.590   2.971   6.111  1.00  0.00     0.158 C 
ATOM     32  O   GLY A   6       7.879   2.339   5.102  1.00  0.00    -0.649 OA
BRANCH  31  33
ATOM     33  OXT GLY A   6       6.741   2.399   7.034  1.00  0.00    -0.775 OA
ATOM     34  HXT GLY A   6       6.196   3.029   7.555  1.00  0.00     0.167 HD
ENDBRANCH  31  33
ENDBRANCH  30  31
ENDBRANCH  28  30
ENDBRANCH  13  26
ENDBRANCH  11  13
ENDBRANCH   5   9
ENDBRANCH   3   5
BRANCH   1  35
ATOM     35  CA  ALA A   3       4.494   6.410  -1.175  1.00  0.00     0.172 C 
ATOM     36  CB  ALA A   3       2.967   6.364  -1.261  1.00  0.00     0.042 C 
BRANCH  35  37
ATOM     37  N   ALA A   3       5.013   5.340  -0.308  1.00  0.00    -0.346 N 
ATOM     38  C   GLN A   2       4.765   5.287   1.040  1.00  0.00     0.241 C 
ATOM     39  O   GLN A   2       4.290   6.249   1.651  1.00  0.00    -0.271 OA
ATOM     40  H   ALA A   3       5.460   4.545  -0.768  1.00  0.00     0.163 HD
BRANCH  38  41
ATOM     41  CA  GLN A   2       5.158   4.022   1.804  1.00  0.00     0.177 C 
BRANCH  41  42
ATOM     42  N   GLN A   2       5.091   4.423   3.211  1.00  0.00    -0.346 N 
ATOM     43  C   ILE A   1       4.011   4.501   4.046  1.00  0.00     0.251 C 
ATOM     44  O   ILE A   1       2.870   4.140   3.814  1.00  0.00    -0.271 OA
ATOM     45  H   GLN A   2       5.805   5.132   3.385  1.00  0.00     0.163 HD
BRANCH  43  46
ATOM     46  CA  ILE A   1       4.395   5.035   5.466  1.00  0.00     0.312 C 
BRANCH  46  47
ATOM     47  CB  ILE A   1       4.460   6.548   5.618  1.00  0.00     0.023 C 
ATOM     48  CG2 ILE A   1       4.984   7.030   6.990  1.00  0.00     0.012 C 
BRANCH  47  49
ATOM     49  CG1 ILE A   1       3.037   7.003   5.349  1.00  0.00     0.002 C 
ATOM     50  CD1 ILE A   1       2.898   8.484   5.148  1.00  0.00     0.005 C 
ENDBRANCH  47  49
ENDBRANCH  46  47
BRANCH  46  51
ATOM     51  N   ILE A   1       5.702   4.473   5.650  1.00  0.00     0.092 N 
ATOM     52  H1  ILE A   1       6.332   5.109   5.151  1.00  0.00     0.313 HD
ATOM     53  H2  ILE A   1       5.780   3.677   4.975  1.00  0.00     0.313 HD
ENDBRANCH  46  51
ENDBRANCH  43  46
ENDBRANCH  41  42
BRANCH  41  54
ATOM     54  CB  GLN A   2       4.315   2.784   1.595  1.00  0.00     0.044 C 
BRANCH  54  55
ATOM     55  CG  GLN A   2       4.206   2.268   0.184  1.00  0.00     0.105 C 
BRANCH  55  56
ATOM     56  CD  GLN A   2       5.552   1.873  -0.332  1.00  0.00     0.215 C 
ATOM     57  OE1 GLN A   2       6.265   2.657  -0.950  1.00  0.00    -0.274 OA
ATOM     58  NE2 GLN A   2       5.941   0.620   0.007  1.00  0.00    -0.370 N 
ATOM     59 1HE2 GLN A   2       5.449   0.064   0.690  1.00  0.00     0.159 HD
ATOM     60 2HE2 GLN A   2       6.883   0.327  -0.251  1.00  0.00     0.159 HD
ENDBRANCH  55  56
ENDBRANCH  54  55
ENDBRANCH  41  54
ENDBRANCH  38  41
ENDBRANCH  35  37
ENDBRANCH   1  35
TORSDOF 24
