REMARK  14 active torsions:
REMARK  status: ('A' for Active; 'I' for Inactive)
REMARK    1  A    between atoms: C_2  and  C_3 
REMARK    2  A    between atoms: C_3  and  C_4 
REMARK    3  A    between atoms: C_4  and  C_5 
REMARK    4  A    between atoms: C_5  and  C_6 
REMARK    5  A    between atoms: C_6  and  C_7 
REMARK    6  A    between atoms: C_7  and  C_8 
REMARK    7  A    between atoms: C_8  and  C_9 
REMARK    8  A    between atoms: C_9  and  C_10 
REMARK    9  A    between atoms: C_9  and  C_16 
REMARK   10  A    between atoms: C_10  and  C_11 
REMARK   11  A    between atoms: C_11  and  C_12 
REMARK   12  A    between atoms: C_12  and  C_13 
REMARK   13  A    between atoms: C_13  and  C_14 
REMARK   14  A    between atoms: C_16  and  O_17 
ROOT
HETATM    1  C   UNL     1       9.220  -5.250   2.404  1.00  0.00     0.009 C 
ENDROOT
BRANCH   1   2
HETATM    2  C   UNL     1       8.721  -3.903   1.814  1.00  0.00     0.007 C 
BRANCH   2   3
HETATM    3  C   UNL     1       7.199  -3.787   1.757  1.00  0.00     0.000 C 
BRANCH   3   4
HETATM    4  C   UNL     1       6.700  -2.431   1.250  1.00  0.00     0.000 C 
BRANCH   4   5
HETATM    5  C   UNL     1       5.169  -2.439   1.267  1.00  0.00     0.000 C 
BRANCH   5   6
HETATM    6  C   UNL     1       4.568  -1.142   0.738  1.00  0.00     0.000 C 
BRANCH   6   7
HETATM    7  C   UNL     1       3.039  -1.202   0.770  1.00  0.00    -0.000 C 
BRANCH   7   8
HETATM    8  C   UNL     1       2.436   0.093   0.240  1.00  0.00    -0.005 C 
HETATM    9  C   UNL     1       0.916   0.051   0.261  1.00  0.00     0.005 C 
ENDBRANCH   7   8
ENDBRANCH   6   7
ENDBRANCH   5   6
ENDBRANCH   4   5
ENDBRANCH   3   4
ENDBRANCH   2   3
ENDBRANCH   1   2
BRANCH   1  10
HETATM   10  C   UNL     1       8.727  -6.487   1.612  1.00  0.00     0.007 C 
BRANCH  10  11
HETATM   11  C   UNL     1       9.187  -7.844   2.188  1.00  0.00     0.000 C 
BRANCH  11  12
HETATM   12  C   UNL     1       8.665  -8.159   3.597  1.00  0.00     0.000 C 
BRANCH  12  13
HETATM   13  C   UNL     1       7.137  -8.191   3.642  1.00  0.00    -0.000 C 
BRANCH  13  14
HETATM   14  C   UNL     1       6.597  -8.519   5.031  1.00  0.00    -0.005 C 
HETATM   15  C   UNL     1       5.074  -8.516   5.006  1.00  0.00     0.005 C 
ENDBRANCH  13  14
ENDBRANCH  12  13
ENDBRANCH  11  12
ENDBRANCH  10  11
ENDBRANCH   1  10
BRANCH   1  16
HETATM   16  C   UNL     1      10.755  -5.220   2.498  1.00  0.00     0.168 C 
BRANCH  16  17
HETATM   17  O   UNL     1      11.361  -5.059   1.219  1.00  0.00    -0.400 OA
HETATM   18  H   UNL     1      11.059  -5.783   0.644  1.00  0.00     0.209 HD
ENDBRANCH  16  17
ENDBRANCH   1  16
TORSDOF 14
