REMARK  7 active torsions:
REMARK  status: ('A' for Active; 'I' for Inactive)
REMARK    1  A    between atoms: C_2  and  C_3 
REMARK    2  A    between atoms: C_3  and  C_4 
REMARK    3  A    between atoms: C_4  and  C_5 
REMARK    4  A    between atoms: C_5  and  C_6 
REMARK    5  A    between atoms: C_6  and  C_7 
REMARK    6  A    between atoms: C_8  and  O_14 
REMARK    7  A    between atoms: C_10  and  O_13 
ROOT
HETATM    1  C   UNL     1       7.176  -1.571  -3.915  1.00  0.00    -0.025 A 
HETATM    2  C   UNL     1       7.424  -0.752  -5.025  1.00  0.00     0.074 A 
HETATM    3  C   UNL     1       7.939  -1.276  -6.210  1.00  0.00     0.073 A 
HETATM    4  C   UNL     1       8.192  -2.640  -6.301  1.00  0.00     0.068 A 
HETATM    5  C   UNL     1       7.929  -3.481  -5.229  1.00  0.00     0.037 A 
HETATM    6  C   UNL     1       7.422  -2.950  -4.042  1.00  0.00     0.012 A 
ENDROOT
BRANCH   1   7
HETATM    7  C   UNL     1       6.647  -1.051  -2.600  1.00  0.00     0.041 C 
BRANCH   7   8
HETATM    8  C   UNL     1       5.118  -1.008  -2.582  1.00  0.00     0.005 C 
BRANCH   8   9
HETATM    9  C   UNL     1       4.591  -0.468  -1.252  1.00  0.00     0.000 C 
BRANCH   9  10
HETATM   10  C   UNL     1       3.063  -0.434  -1.243  1.00  0.00    -0.000 C 
BRANCH  10  11
HETATM   11  C   UNL     1       2.519   0.106   0.079  1.00  0.00    -0.005 C 
HETATM   12  C   UNL     1       0.998   0.133   0.077  1.00  0.00     0.005 C 
ENDBRANCH  10  11
ENDBRANCH   9  10
ENDBRANCH   8   9
ENDBRANCH   7   8
ENDBRANCH   1   7
BRANCH   2  13
HETATM   13  O   UNL     1       7.185   0.594  -5.029  1.00  0.00    -0.360 OA
HETATM   14  H   UNL     1       6.708   0.839  -4.221  1.00  0.00     0.217 HD
ENDBRANCH   2  13
BRANCH   4  15
HETATM   15  O   UNL     1       8.702  -3.195  -7.437  1.00  0.00    -0.361 OA
HETATM   16  H   UNL     1       8.865  -2.483  -8.078  1.00  0.00     0.217 HD
ENDBRANCH   4  15
TORSDOF 7
