REMARK  2 active torsions:
REMARK  status: ('A' for Active; 'I' for Inactive)
REMARK    1  A    between atoms: C_1  and  C_2 
REMARK    2  A    between atoms: C_1  and  C_6 
ROOT
HETATM    1  C   UNL     1       0.812   0.014  -0.062  1.00  0.00     0.383 C 
HETATM    2  F   UNL     1       1.985  -0.637  -0.319  1.00  0.00    -0.230 F 
ENDROOT
BRANCH   1   3
HETATM    3  C   UNL     1       0.705   0.357   1.387  1.00  0.00     0.426 C 
HETATM    4  F   UNL     1      -0.413   1.060   1.672  1.00  0.00    -0.168 F 
HETATM    5  F   UNL     1       0.639  -0.775   2.132  1.00  0.00    -0.168 F 
HETATM    6  F   UNL     1       1.758   1.067   1.843  1.00  0.00    -0.168 F 
ENDBRANCH   1   3
BRANCH   1   7
HETATM    7  C   UNL     1       0.699   1.262  -0.881  1.00  0.00     0.426 C 
HETATM    8  F   UNL     1      -0.421   1.960  -0.598  1.00  0.00    -0.168 F 
HETATM    9  F   UNL     1       1.750   2.088  -0.722  1.00  0.00    -0.168 F 
HETATM   10  F   UNL     1       0.635   0.951  -2.195  1.00  0.00    -0.168 F 
ENDBRANCH   1   7
TORSDOF 2
