REMARK WARNING: 32 MAX_TORS EXCEEDED!!!
REMARK  37 active torsions:
REMARK  status: ('A' for Active; 'I' for Inactive)
REMARK    1  A    between atoms: C_2  and  C_3 
REMARK    2  A    between atoms: C_3  and  C_4 
REMARK    3  A    between atoms: C_4  and  C_5 
REMARK    4  A    between atoms: C_5  and  C_6 
REMARK    5  A    between atoms: C_6  and  C_7 
REMARK    6  A    between atoms: C_7  and  C_8 
REMARK    7  A    between atoms: C_8  and  C_9 
REMARK    8  A    between atoms: C_9  and  C_10 
REMARK    9  A    between atoms: C_10  and  C_11 
REMARK   10  A    between atoms: C_11  and  C_12 
REMARK   11  A    between atoms: C_12  and  C_13 
REMARK   12  A    between atoms: C_13  and  C_14 
REMARK   13  A    between atoms: C_14  and  C_15 
REMARK   14  A    between atoms: C_15  and  C_16 
REMARK   15  A    between atoms: C_16  and  C_17 
REMARK   16  A    between atoms: C_17  and  C_18 
REMARK       I    between atoms: C_18  and  N_20 
REMARK   17  A    between atoms: N_20  and  C_23 
REMARK   18  A    between atoms: C_23  and  C_24 
REMARK   19  A    between atoms: C_24  and  C_25 
REMARK   20  A    between atoms: C_24  and  O_48 
REMARK   21  A    between atoms: C_25  and  N_26 
REMARK       I    between atoms: N_26  and  C_29 
REMARK   22  A    between atoms: C_29  and  C_31 
REMARK   23  A    between atoms: C_31  and  C_32 
REMARK   24  A    between atoms: C_32  and  C_33 
REMARK   25  A    between atoms: C_33  and  C_34 
REMARK   26  A    between atoms: C_34  and  C_35 
REMARK   27  A    between atoms: C_35  and  C_36 
REMARK   28  A    between atoms: C_36  and  C_37 
REMARK   29  A    between atoms: C_37  and  C_38 
REMARK   30  A    between atoms: C_38  and  C_39 
REMARK   31  A    between atoms: C_39  and  C_40 
REMARK   32  A    between atoms: C_40  and  C_41 
REMARK   33  A    between atoms: C_41  and  C_42 
REMARK   34  A    between atoms: C_42  and  C_43 
REMARK   35  A    between atoms: C_43  and  C_44 
REMARK   36  A    between atoms: C_44  and  C_45 
REMARK   37  A    between atoms: C_45  and  C_46 
ROOT
HETATM    1 CL   UNL     2      -1.612   1.171   1.396  1.00  0.00     0.000 Cl
ENDROOT
TORSDOF 37
