REMARK  9 active torsions:
REMARK  status: ('A' for Active; 'I' for Inactive)
REMARK    1  A    between atoms: C_3  and  C_10 
REMARK    2  A    between atoms: C_11  and  C_12 
REMARK    3  A    between atoms: C_13  and  C_14 
REMARK    4  A    between atoms: C_15  and  C_16 
REMARK    5  A    between atoms: C_17  and  C_18 
REMARK    6  A    between atoms: C_18  and  O_20 
REMARK    7  A    between atoms: O_20  and  C_21 
REMARK    8  A    between atoms: C_21  and  C_22 
REMARK    9  A    between atoms: C_22  and  C_24 
ROOT
HETATM    1  C   UNL     1      -1.265  -5.287   1.199  1.00  0.00     0.001 C 
HETATM    2  C   UNL     1      -2.109  -5.466   2.230  1.00  0.00     0.007 C 
ENDROOT
BRANCH   1   3
HETATM    3  C   UNL     1       0.095  -5.752   1.201  1.00  0.00     0.007 C 
HETATM    4  C   UNL     1       1.187  -5.077   0.804  1.00  0.00    -0.062 C 
HETATM    5  C   UNL     1       2.525  -5.763   0.853  1.00  0.00     0.048 C 
BRANCH   4   6
HETATM    6  C   UNL     1       1.207  -3.653   0.432  1.00  0.00     0.007 C 
HETATM    7  C   UNL     1       0.764  -2.736   1.303  1.00  0.00     0.009 C 
BRANCH   7   8
HETATM    8  C   UNL     1       0.647  -1.277   1.305  1.00  0.00    -0.048 C 
HETATM    9  C   UNL     1       0.073  -0.712   2.415  1.00  0.00    -0.077 C 
HETATM   10  C   UNL     1      -0.311  -1.392   3.724  1.00  0.00     0.044 C 
HETATM   11  C   UNL     1      -0.303   0.750   2.493  1.00  0.00     0.034 C 
HETATM   12  C   UNL     1      -0.363   1.393   1.125  1.00  0.00     0.005 C 
HETATM   13  C   UNL     1       0.964   1.130   0.438  1.00  0.00     0.014 C 
HETATM   14  C   UNL     1       1.148  -0.387   0.105  1.00  0.00    -0.020 C 
HETATM   15  C   UNL     1       2.664  -0.559  -0.183  1.00  0.00     0.020 C 
HETATM   16  C   UNL     1       0.425  -0.632  -1.245  1.00  0.00     0.020 C 
ENDBRANCH   7   8
ENDBRANCH   4   6
ENDBRANCH   1   3
BRANCH   2  17
HETATM   17  C   UNL     1      -3.499  -5.100   2.170  1.00  0.00    -0.056 C 
HETATM   18  C   UNL     1      -4.408  -5.787   1.445  1.00  0.00     0.089 C 
HETATM   19  C   UNL     1      -3.884  -3.853   2.940  1.00  0.00     0.048 C 
BRANCH  18  20
HETATM   20  C   UNL     1      -4.262  -7.037   0.645  1.00  0.00     0.283 C 
HETATM   21  O   UNL     1      -5.001  -7.236  -0.316  1.00  0.00    -0.260 OA
BRANCH  20  22
HETATM   22  O   UNL     1      -3.325  -7.913   1.098  1.00  0.00    -0.311 OA
BRANCH  22  23
HETATM   23  C   UNL     1      -2.972  -8.976   0.201  1.00  0.00     0.258 C 
BRANCH  23  24
HETATM   24  C   UNL     1      -2.747 -10.446   0.700  1.00  0.00     0.158 C 
HETATM   25  O   UNL     1      -1.659 -10.991   0.512  1.00  0.00    -0.295 OA
BRANCH  24  26
HETATM   26  C   UNL     1      -3.925 -11.237   1.330  1.00  0.00     0.012 C 
HETATM   27  C   UNL     1      -5.119 -11.222   0.366  1.00  0.00     0.022 C 
HETATM   28  C   UNL     1      -3.575 -12.724   1.596  1.00  0.00     0.022 C 
HETATM   29  C   UNL     1      -4.271 -10.617   2.683  1.00  0.00     0.022 C 
ENDBRANCH  24  26
ENDBRANCH  23  24
ENDBRANCH  22  23
ENDBRANCH  20  22
ENDBRANCH  18  20
ENDBRANCH   2  17
TORSDOF 9
