REMARK  18 active torsions:
REMARK  status: ('A' for Active; 'I' for Inactive)
REMARK    1  A    between atoms: C_2  and  C_3 
REMARK    2  A    between atoms: C_3  and  C_4 
REMARK    3  A    between atoms: C_4  and  C_5 
REMARK    4  A    between atoms: C_5  and  C_6 
REMARK    5  A    between atoms: C_6  and  C_7 
REMARK    6  A    between atoms: C_7  and  C_8 
REMARK    7  A    between atoms: C_7  and  O_21 
REMARK    8  A    between atoms: C_8  and  C_9 
REMARK    9  A    between atoms: C_9  and  C_10 
REMARK   10  A    between atoms: C_10  and  C_11 
REMARK   11  A    between atoms: C_11  and  C_12 
REMARK   12  A    between atoms: C_12  and  C_13 
REMARK   13  A    between atoms: C_13  and  C_14 
REMARK   14  A    between atoms: C_14  and  C_15 
REMARK   15  A    between atoms: C_15  and  C_16 
REMARK   16  A    between atoms: C_16  and  C_17 
REMARK   17  A    between atoms: C_17  and  C_18 
REMARK   18  A    between atoms: C_18  and  O_20 
ROOT
HETATM    1  C   UNL     1       4.701  -2.346   6.248  1.00  0.00     0.000 C 
ENDROOT
BRANCH   1   2
HETATM    2  C   UNL     1       5.126  -1.174   5.357  1.00  0.00     0.002 C 
BRANCH   2   3
HETATM    3  C   UNL     1       6.644  -1.087   5.144  1.00  0.00     0.032 C 
BRANCH   3   4
HETATM    4  C   UNL     1       7.046   0.127   4.296  1.00  0.00     0.118 C 
BRANCH   4   5
HETATM    5  C   UNL     1       8.561   0.233   4.046  1.00  0.00     0.032 C 
BRANCH   5   6
HETATM    6  C   UNL     1       9.123  -0.978   3.308  1.00  0.00     0.002 C 
BRANCH   6   7
HETATM    7  C   UNL     1      10.603  -0.839   2.944  1.00  0.00     0.000 C 
BRANCH   7   8
HETATM    8  C   UNL     1      11.050  -2.094   2.189  1.00  0.00    -0.000 C 
BRANCH   8   9
HETATM    9  C   UNL     1      12.527  -2.075   1.808  1.00  0.00    -0.005 C 
HETATM   10  C   UNL     1      12.899  -3.351   1.065  1.00  0.00     0.005 C 
ENDBRANCH   8   9
ENDBRANCH   7   8
ENDBRANCH   6   7
ENDBRANCH   5   6
ENDBRANCH   4   5
BRANCH   4  11
HETATM   11  O   UNL     1       6.629   1.322   4.960  1.00  0.00    -0.396 OA
HETATM   12  H   UNL     1       7.043   1.332   5.841  1.00  0.00     0.210 HD
ENDBRANCH   4  11
ENDBRANCH   3   4
ENDBRANCH   2   3
ENDBRANCH   1   2
BRANCH   1  13
HETATM   13  C   UNL     1       5.307  -2.266   7.649  1.00  0.00     0.000 C 
BRANCH  13  14
HETATM   14  C   UNL     1       4.828  -3.403   8.544  1.00  0.00     0.000 C 
BRANCH  14  15
HETATM   15  C   UNL     1       5.490  -3.312   9.919  1.00  0.00     0.000 C 
BRANCH  15  16
HETATM   16  C   UNL     1       5.031  -4.461  10.809  1.00  0.00     0.000 C 
BRANCH  16  17
HETATM   17  C   UNL     1       5.667  -4.399  12.197  1.00  0.00     0.001 C 
BRANCH  17  18
HETATM   18  C   UNL     1       5.171  -5.566  13.046  1.00  0.00     0.010 C 
BRANCH  18  19
HETATM   19  C   UNL     1       5.772  -5.559  14.448  1.00  0.00     0.110 C 
BRANCH  19  20
HETATM   20  C   UNL     1       5.262  -6.722  15.269  1.00  0.00     0.139 C 
HETATM   21  O   UNL     1       4.473  -7.571  14.881  1.00  0.00    -0.650 OA
BRANCH  20  22
HETATM   22  O   UNL     1       5.778  -6.736  16.518  1.00  0.00    -0.776 OA
HETATM   23  H   UNL     1       6.394  -6.001  16.697  1.00  0.00     0.167 HD
ENDBRANCH  20  22
ENDBRANCH  19  20
ENDBRANCH  18  19
ENDBRANCH  17  18
ENDBRANCH  16  17
ENDBRANCH  15  16
ENDBRANCH  14  15
ENDBRANCH  13  14
ENDBRANCH   1  13
TORSDOF 18
