REMARK  7 active torsions:
REMARK  status: ('A' for Active; 'I' for Inactive)
REMARK    1  A    between atoms: C_4  and  N_10 
REMARK    2  A    between atoms: C_5  and  C_7 
REMARK    3  A    between atoms: C_7  and  O_9 
REMARK       I    between atoms: N_10  and  C_11 
REMARK    4  A    between atoms: C_11  and  C_13 
REMARK    5  A    between atoms: C_13  and  C_14 
REMARK    6  A    between atoms: C_14  and  C_15 
REMARK    7  A    between atoms: C_18  and  O_21 
ROOT
HETATM    1  N   UNL     1      -2.789   0.237  -0.271  1.00  0.00    -0.326 N 
HETATM    2  C   UNL     1      -3.708  -0.798  -0.261  1.00  0.00     0.222 C 
HETATM    3  O   UNL     1      -3.423  -1.989  -0.167  1.00  0.00    -0.273 OA
HETATM    4  H   UNL     1      -3.108   1.166  -0.551  1.00  0.00     0.169 HD
ENDROOT
BRANCH   1   5
HETATM    5  C   UNL     1      -1.388   0.099  -0.047  1.00  0.00     0.051 A 
HETATM    6  C   UNL     1      -0.859  -1.036   0.582  1.00  0.00     0.030 A 
HETATM    7  C   UNL     1       0.518  -1.194   0.765  1.00  0.00     0.002 A 
HETATM    8  C   UNL     1       1.396  -0.208   0.335  1.00  0.00     0.001 A 
HETATM    9  C   UNL     1       0.895   0.954  -0.251  1.00  0.00     0.020 A 
HETATM   10  C   UNL     1      -0.491   1.113  -0.443  1.00  0.00     0.064 A 
BRANCH  10  11
HETATM   11  C   UNL     1      -1.005   2.364  -1.052  1.00  0.00     0.178 C 
HETATM   12  O   UNL     1      -2.068   2.866  -0.723  1.00  0.00    -0.646 OA
BRANCH  11  13
HETATM   13  O   UNL     1      -0.231   2.856  -2.042  1.00  0.00    -0.773 OA
HETATM   14  H   UNL     1       0.474   2.258  -2.353  1.00  0.00     0.167 HD
ENDBRANCH  11  13
ENDBRANCH  10  11
ENDBRANCH   1   5
BRANCH   2  15
HETATM   15  C   UNL     1      -5.146  -0.357  -0.468  1.00  0.00     0.108 C 
BRANCH  15  16
HETATM   16  C   UNL     1      -6.077  -1.386   0.178  1.00  0.00     0.048 C 
BRANCH  16  17
HETATM   17  C   UNL     1      -7.544  -1.107  -0.020  1.00  0.00    -0.058 A 
HETATM   18  C   UNL     1      -8.227  -1.659  -1.113  1.00  0.00     0.010 A 
HETATM   19  C   UNL     1      -9.602  -1.466  -1.263  1.00  0.00     0.037 A 
HETATM   20  C   UNL     1     -10.292  -0.713  -0.320  1.00  0.00     0.065 A 
HETATM   21  C   UNL     1      -9.629  -0.147   0.762  1.00  0.00     0.037 A 
HETATM   22  C   UNL     1      -8.255  -0.338   0.911  1.00  0.00     0.010 A 
BRANCH  20  23
HETATM   23  O   UNL     1     -11.637  -0.511  -0.419  1.00  0.00    -0.361 OA
HETATM   24  H   UNL     1     -11.957  -0.955  -1.221  1.00  0.00     0.217 HD
ENDBRANCH  20  23
ENDBRANCH  16  17
ENDBRANCH  15  16
ENDBRANCH   2  15
TORSDOF 7
