REMARK  7 active torsions:
REMARK  status: ('A' for Active; 'I' for Inactive)
REMARK    1  A    between atoms: N_3  and  C_10 
REMARK    2  A    between atoms: N_6  and  C_7 
REMARK    3  A    between atoms: C_7  and  C_8 
REMARK    4  A    between atoms: C_8  and  O_9 
REMARK    5  A    between atoms: C_10  and  C_11 
REMARK    6  A    between atoms: C_11  and  S_12 
REMARK    7  A    between atoms: S_12  and  O_15 
ROOT
HETATM    1  C   UNL     1       0.723  -1.208   0.162  1.00  0.00     0.302 C 
HETATM    2  C   UNL     1      -0.802  -1.147  -0.140  1.00  0.00     0.302 C 
HETATM    3  N   UNL     1      -1.471   0.096   0.319  1.00  0.00     0.092 N 
HETATM    4  C   UNL     1      -0.691   1.250  -0.179  1.00  0.00     0.302 C 
HETATM    5  C   UNL     1       0.816   1.194   0.165  1.00  0.00     0.302 C 
HETATM    6  N   UNL     1       1.498  -0.030  -0.308  1.00  0.00     0.093 N 
ENDROOT
BRANCH   3   7
HETATM    7  C   UNL     1      -1.623   0.089   1.792  1.00  0.00     0.289 C 
BRANCH   7   8
HETATM    8  C   UNL     1      -2.400   1.291   2.314  1.00  0.00     0.185 C 
BRANCH   8   9
HETATM    9  S   UNL     1      -2.539   1.217   4.085  1.00  0.00     0.095 S 
HETATM   10  O   UNL     1      -3.314   0.065   4.475  1.00  0.00    -0.601 OA
HETATM   11  O   UNL     1      -1.262   1.541   4.684  1.00  0.00    -0.601 OA
BRANCH   9  12
HETATM   12  O   UNL     1      -3.520   2.482   4.274  1.00  0.00    -0.296 OA
HETATM   13  H   UNL     1      -4.399   2.147   4.551  1.00  0.00     0.232 HD
ENDBRANCH   9  12
ENDBRANCH   8   9
ENDBRANCH   7   8
ENDBRANCH   3   7
BRANCH   6  14
HETATM   14  C   UNL     1       1.646  -0.076  -1.781  1.00  0.00     0.298 C 
BRANCH  14  15
HETATM   15  C   UNL     1       2.522   1.050  -2.359  1.00  0.00     0.194 C 
BRANCH  15  16
HETATM   16  O   UNL     1       3.808   1.058  -1.751  1.00  0.00    -0.399 OA
HETATM   17  H   UNL     1       3.646   0.951  -0.794  1.00  0.00     0.209 HD
ENDBRANCH  15  16
ENDBRANCH  14  15
ENDBRANCH   6  14
TORSDOF 7
