REMARK  8 active torsions:
REMARK  status: ('A' for Active; 'I' for Inactive)
REMARK    1  A    between atoms: C_1  and  N_2 
REMARK    2  A    between atoms: C_1  and  N_15 
REMARK       I    between atoms: N_2  and  C_3 
REMARK       I    between atoms: C_3  and  N_5 
REMARK    3  A    between atoms: N_5  and  C_6 
REMARK    4  A    between atoms: N_12  and  C_13 
REMARK    5  A    between atoms: C_13  and  O_14 
REMARK       I    between atoms: N_15  and  C_16 
REMARK       I    between atoms: C_16  and  N_18 
REMARK    6  A    between atoms: N_18  and  C_19 
REMARK    7  A    between atoms: N_25  and  C_26 
REMARK    8  A    between atoms: C_26  and  O_27 
ROOT
HETATM    1  C   UNL     1       1.091  -0.172   0.029  1.00  0.00     0.252 C 
ENDROOT
BRANCH   1   2
HETATM    2  N   UNL     1       0.532  -0.969   1.078  1.00  0.00    -0.327 N 
HETATM    3  C   UNL     1      -0.822  -1.130   1.135  1.00  0.00     0.319 C 
HETATM    4  O   UNL     1      -1.611  -0.511   0.432  1.00  0.00    -0.247 OA
HETATM    5  N   UNL     1      -1.212  -1.994   2.114  1.00  0.00    -0.313 N 
HETATM    6  H   UNL     1      -0.524  -2.535   2.614  1.00  0.00     0.166 HD
HETATM    7  H   UNL     1       1.107  -1.733   1.392  1.00  0.00     0.165 HD
BRANCH   5   8
HETATM    8  C   UNL     1      -2.600  -2.166   2.428  1.00  0.00     0.288 C 
HETATM    9  C   UNL     1      -2.939  -3.562   2.985  1.00  0.00     0.268 C 
HETATM   10  O   UNL     1      -2.602  -4.641   2.514  1.00  0.00    -0.269 OA
HETATM   11  N   UNL     1      -3.712  -3.402   4.091  1.00  0.00    -0.276 N 
HETATM   12  C   UNL     1      -3.828  -2.090   4.398  1.00  0.00     0.328 C 
HETATM   13  H   UNL     1      -4.126  -4.148   4.623  1.00  0.00     0.173 HD
HETATM   14  O   UNL     1      -4.520  -1.631   5.292  1.00  0.00    -0.247 OA
HETATM   15  N   UNL     1      -3.040  -1.351   3.532  1.00  0.00    -0.282 N 
BRANCH  15  16
HETATM   16  C   UNL     1      -3.209   0.065   3.381  1.00  0.00     0.297 C 
BRANCH  16  17
HETATM   17  O   UNL     1      -2.935   0.676   4.625  1.00  0.00    -0.382 OA
HETATM   18  H   UNL     1      -3.522   0.227   5.263  1.00  0.00     0.211 HD
ENDBRANCH  16  17
ENDBRANCH  15  16
ENDBRANCH   5   8
ENDBRANCH   1   2
BRANCH   1  19
HETATM   19  N   UNL     1       2.528  -0.222   0.054  1.00  0.00    -0.327 N 
HETATM   20  C   UNL     1       3.168  -1.360  -0.349  1.00  0.00     0.319 C 
HETATM   21  O   UNL     1       2.600  -2.410  -0.613  1.00  0.00    -0.247 OA
HETATM   22  N   UNL     1       4.523  -1.214  -0.371  1.00  0.00    -0.313 N 
HETATM   23  H   UNL     1       4.917  -0.477   0.193  1.00  0.00     0.166 HD
HETATM   24  H   UNL     1       2.991   0.637  -0.202  1.00  0.00     0.165 HD
BRANCH  22  25
HETATM   25  C   UNL     1       5.354  -2.356  -0.628  1.00  0.00     0.288 C 
HETATM   26  C   UNL     1       6.678  -1.981  -1.322  1.00  0.00     0.268 C 
HETATM   27  O   UNL     1       6.813  -1.340  -2.353  1.00  0.00    -0.269 OA
HETATM   28  N   UNL     1       7.700  -2.501  -0.595  1.00  0.00    -0.276 N 
HETATM   29  C   UNL     1       7.225  -3.157   0.491  1.00  0.00     0.328 C 
HETATM   30  H   UNL     1       8.670  -2.471  -0.857  1.00  0.00     0.173 HD
HETATM   31  O   UNL     1       7.893  -3.832   1.255  1.00  0.00    -0.247 OA
HETATM   32  N   UNL     1       5.860  -2.954   0.582  1.00  0.00    -0.282 N 
BRANCH  32  33
HETATM   33  C   UNL     1       5.034  -3.824   1.369  1.00  0.00     0.297 C 
BRANCH  33  34
HETATM   34  O   UNL     1       5.413  -3.681   2.721  1.00  0.00    -0.382 OA
HETATM   35  H   UNL     1       6.372  -3.865   2.737  1.00  0.00     0.211 HD
ENDBRANCH  33  34
ENDBRANCH  32  33
ENDBRANCH  22  25
ENDBRANCH   1  19
TORSDOF 8
