REMARK  6 active torsions:
REMARK  status: ('A' for Active; 'I' for Inactive)
REMARK    1  A    between atoms: C_2  and  C_3 
REMARK    2  A    between atoms: C_3  and  C_4 
REMARK    3  A    between atoms: C_4  and  N_5 
REMARK       I    between atoms: N_5  and  C_6 
REMARK    4  A    between atoms: C_6  and  O_8 
REMARK    5  A    between atoms: O_8  and  C_9 
REMARK    6  A    between atoms: C_9  and  C_10 
ROOT
HETATM    1  C   UNL     1       4.667  -1.722   6.392  1.00  0.00    -0.068 C 
HETATM    2  C   UNL     1       3.695  -2.348   6.709  1.00  0.00    -0.028 C 
HETATM    3  I   UNL     1       2.041  -3.477   7.251  1.00  0.00     0.018 I 
ENDROOT
BRANCH   1   4
HETATM    4  C   UNL     1       5.894  -1.016   5.991  1.00  0.00     0.275 C 
BRANCH   4   5
HETATM    5  O   UNL     1       5.644  -0.028   4.980  1.00  0.00    -0.292 OA
BRANCH   5   6
HETATM    6  C   UNL     1       5.485  -0.528   3.732  1.00  0.00     0.361 C 
HETATM    7  N   UNL     1       5.249   0.496   2.863  1.00  0.00    -0.337 N 
HETATM    8  H   UNL     1       5.229   1.423   3.265  1.00  0.00     0.164 HD
HETATM    9  O   UNL     1       5.526  -1.710   3.430  1.00  0.00    -0.238 OA
BRANCH   7  10
HETATM   10  C   UNL     1       4.711   0.272   1.540  1.00  0.00     0.125 C 
BRANCH  10  11
HETATM   11  C   UNL     1       3.179   0.259   1.543  1.00  0.00     0.019 C 
BRANCH  11  12
HETATM   12  C   UNL     1       2.583   1.603   1.975  1.00  0.00    -0.003 C 
HETATM   13  C   UNL     1       1.063   1.587   1.943  1.00  0.00     0.005 C 
ENDBRANCH  11  12
ENDBRANCH  10  11
ENDBRANCH   7  10
ENDBRANCH   5   6
ENDBRANCH   4   5
ENDBRANCH   1   4
TORSDOF 6
