REMARK  5 active torsions:
REMARK  status: ('A' for Active; 'I' for Inactive)
REMARK    1  A    between atoms: C_2  and  C_4 
REMARK    2  A    between atoms: C_4  and  O_5 
REMARK    3  A    between atoms: O_5  and  C_6 
REMARK    4  A    between atoms: C_6  and  C_8 
REMARK    5  A    between atoms: C_11  and  O_14 
ROOT
HETATM    1  C   UNL     1       6.509  -0.301   2.626  1.00  0.00     0.039 A 
HETATM    2  C   UNL     1       7.222  -0.601   1.455  1.00  0.00     0.020 A 
HETATM    3  C   UNL     1       8.618  -0.539   1.442  1.00  0.00     0.037 A 
HETATM    4  C   UNL     1       9.297  -0.178   2.601  1.00  0.00     0.065 A 
HETATM    5  C   UNL     1       8.604   0.113   3.772  1.00  0.00     0.037 A 
HETATM    6  C   UNL     1       7.208   0.045   3.790  1.00  0.00     0.020 A 
ENDROOT
BRANCH   1   7
HETATM    7  C   UNL     1       5.024  -0.419   2.685  1.00  0.00     0.293 C 
HETATM    8  O   UNL     1       4.394  -0.557   3.718  1.00  0.00    -0.259 OA
BRANCH   7   9
HETATM    9  O   UNL     1       4.518  -0.407   1.425  1.00  0.00    -0.317 OA
BRANCH   9  10
HETATM   10  C   UNL     1       3.189  -0.920   1.268  1.00  0.00     0.183 C 
BRANCH  10  11
HETATM   11  C   UNL     1       2.144   0.180   1.049  1.00  0.00     0.002 C 
HETATM   12  C   UNL     1       2.463   1.045  -0.173  1.00  0.00     0.011 C 
HETATM   13  C   UNL     1       0.766  -0.467   0.885  1.00  0.00     0.011 C 
ENDBRANCH  10  11
ENDBRANCH   9  10
ENDBRANCH   7   9
ENDBRANCH   1   7
BRANCH   4  14
HETATM   14  O   UNL     1      10.657  -0.103   2.630  1.00  0.00    -0.361 OA
HETATM   15  H   UNL     1      11.002  -0.316   1.747  1.00  0.00     0.217 HD
ENDBRANCH   4  14
TORSDOF 5
