REMARK  4 active torsions:
REMARK  status: ('A' for Active; 'I' for Inactive)
REMARK    1  A    between atoms: C_2  and  O_4 
REMARK    2  A    between atoms: O_4  and  C_5 
REMARK    3  A    between atoms: C_5  and  C_7 
REMARK    4  A    between atoms: C_10  and  O_13 
ROOT
HETATM    1  C   UNL     1       4.824  -1.152  -2.847  1.00  0.00     0.039 A 
HETATM    2  C   UNL     1       6.174  -1.156  -3.231  1.00  0.00     0.020 A 
HETATM    3  C   UNL     1       6.570  -1.766  -4.424  1.00  0.00     0.037 A 
HETATM    4  C   UNL     1       5.610  -2.368  -5.232  1.00  0.00     0.065 A 
HETATM    5  C   UNL     1       4.265  -2.348  -4.881  1.00  0.00     0.037 A 
HETATM    6  C   UNL     1       3.868  -1.740  -3.688  1.00  0.00     0.020 A 
ENDROOT
BRANCH   1   7
HETATM    7  C   UNL     1       4.466  -0.543  -1.538  1.00  0.00     0.293 C 
HETATM    8  O   UNL     1       5.288  -0.055  -0.777  1.00  0.00    -0.259 OA
BRANCH   7   9
HETATM    9  O   UNL     1       3.130  -0.628  -1.320  1.00  0.00    -0.313 OA
BRANCH   9  10
HETATM   10  C   UNL     1       2.657  -0.105  -0.064  1.00  0.00     0.124 C 
HETATM   11  C   UNL     1       2.542   1.414  -0.147  1.00  0.00     0.040 C 
HETATM   12  C   UNL     1       1.292  -0.728   0.205  1.00  0.00     0.040 C 
ENDBRANCH   9  10
ENDBRANCH   7   9
ENDBRANCH   1   7
BRANCH   4  13
HETATM   13  O   UNL     1       5.952  -3.005  -6.388  1.00  0.00    -0.361 OA
HETATM   14  H   UNL     1       6.921  -3.021  -6.461  1.00  0.00     0.217 HD
ENDBRANCH   4  13
TORSDOF 4
