REMARK  1 active torsions:
REMARK  status: ('A' for Active; 'I' for Inactive)
REMARK    1  A    between atoms: C_2  and  O_4 
ROOT
HETATM    1  C   UNL     1       1.048   0.058  -0.040  1.00  0.00     0.039 C 
HETATM    2  C   UNL     1       2.568   0.060  -0.070  1.00  0.00     0.110 C 
HETATM    3  C   UNL     1       3.104   0.054  -1.494  1.00  0.00     0.039 C 
ENDROOT
BRANCH   2   4
HETATM    4  O   UNL     1       3.050   1.215   0.608  1.00  0.00    -0.396 OA
HETATM    5  H   UNL     1       2.719   1.999   0.138  1.00  0.00     0.209 HD
ENDBRANCH   2   4
TORSDOF 1
