REMARK  22 active torsions:
REMARK  status: ('A' for Active; 'I' for Inactive)
REMARK    1  A    between atoms: C_2  and  N_3 
REMARK    2  A    between atoms: N_3  and  C_6 
REMARK    3  A    between atoms: C_6  and  C_7 
REMARK    4  A    between atoms: C_7  and  C_8 
REMARK    5  A    between atoms: C_8  and  N_9 
REMARK       I    between atoms: N_9  and  C_10 
REMARK    6  A    between atoms: C_10  and  C_12 
REMARK    7  A    between atoms: C_12  and  C_13 
REMARK    8  A    between atoms: C_13  and  C_14 
REMARK    9  A    between atoms: C_14  and  C_15 
REMARK   10  A    between atoms: C_15  and  C_16 
REMARK   11  A    between atoms: C_16  and  C_17 
REMARK   12  A    between atoms: C_17  and  C_18 
REMARK   13  A    between atoms: C_18  and  C_19 
REMARK   14  A    between atoms: C_19  and  C_20 
REMARK   15  A    between atoms: C_20  and  C_21 
REMARK   16  A    between atoms: C_21  and  C_22 
REMARK   17  A    between atoms: C_22  and  C_23 
REMARK   18  A    between atoms: C_23  and  C_24 
REMARK   19  A    between atoms: C_24  and  C_25 
REMARK   20  A    between atoms: C_25  and  C_26 
REMARK   21  A    between atoms: C_31  and  O_32 
REMARK   22  A    between atoms: O_32  and  S_33 
ROOT
HETATM    1  S   UNL     2       4.360   1.799   0.828  1.00  0.00     0.251 S 
HETATM    2  O   UNL     2       4.584   1.554  -0.597  1.00  0.00    -0.572 OA
HETATM    3  O   UNL     2       5.200   2.831   1.428  1.00  0.00    -0.572 OA
HETATM    4  O   UNL     2       4.324   0.522   1.543  1.00  0.00    -0.572 OA
ENDROOT
BRANCH   1   5
HETATM    5  O   UNL     2       2.840   2.374   0.922  1.00  0.00    -0.257 OA
BRANCH   5   6
HETATM    6  C   UNL     2       1.856   1.539   0.348  1.00  0.00     0.188 C 
HETATM    7  C   UNL     2       0.458   2.115   0.415  1.00  0.00     0.035 C 
ENDBRANCH   5   6
ENDBRANCH   1   5
TORSDOF 22
