REMARK  18 active torsions:
REMARK  status: ('A' for Active; 'I' for Inactive)
REMARK    1  A    between atoms: C_2  and  C_4 
REMARK    2  A    between atoms: C_4  and  C_5 
REMARK    3  A    between atoms: C_5  and  C_6 
REMARK    4  A    between atoms: C_6  and  C_7 
REMARK    5  A    between atoms: C_7  and  C_8 
REMARK    6  A    between atoms: C_8  and  C_9 
REMARK    7  A    between atoms: C_9  and  C_10 
REMARK    8  A    between atoms: C_10  and  C_11 
REMARK    9  A    between atoms: C_11  and  C_12 
REMARK   10  A    between atoms: C_12  and  C_13 
REMARK   11  A    between atoms: C_13  and  C_14 
REMARK   12  A    between atoms: C_14  and  C_15 
REMARK   13  A    between atoms: C_15  and  C_16 
REMARK   14  A    between atoms: C_16  and  C_17 
REMARK   15  A    between atoms: C_17  and  C_18 
REMARK       I    between atoms: C_18  and  N_20 
REMARK   16  A    between atoms: N_20  and  C_21 
REMARK   17  A    between atoms: C_21  and  C_22 
REMARK   18  A    between atoms: C_22  and  O_24 
ROOT
HETATM    1  C   UNL     1      12.602  -5.295  -4.772  1.00  0.00     0.000 C 
ENDROOT
BRANCH   1   2
HETATM    2  C   UNL     1      11.080  -5.292  -4.769  1.00  0.00     0.000 C 
BRANCH   2   3
HETATM    3  C   UNL     1      10.557  -4.229  -3.815  1.00  0.00     0.000 C 
BRANCH   3   4
HETATM    4  C   UNL     1       9.038  -4.225  -3.813  1.00  0.00     0.000 C 
BRANCH   4   5
HETATM    5  C   UNL     1       8.516  -3.161  -2.862  1.00  0.00     0.000 C 
BRANCH   5   6
HETATM    6  C   UNL     1       6.997  -3.160  -2.867  1.00  0.00     0.000 C 
BRANCH   6   7
HETATM    7  C   UNL     1       6.474  -2.095  -1.920  1.00  0.00     0.000 C 
BRANCH   7   8
HETATM    8  C   UNL     1       4.952  -2.086  -1.920  1.00  0.00     0.000 C 
BRANCH   8   9
HETATM    9  C   UNL     1       4.452  -1.025  -0.953  1.00  0.00     0.000 C 
BRANCH   9  10
HETATM   10  C   UNL     1       2.928  -0.994  -0.904  1.00  0.00     0.004 C 
BRANCH  10  11
HETATM   11  C   UNL     1       2.394   0.077   0.059  1.00  0.00    -0.023 C 
HETATM   12  C   UNL     1       0.866   0.074   0.029  1.00  0.00     0.009 C 
HETATM   13  C   UNL     1       2.887  -0.132   1.492  1.00  0.00     0.009 C 
ENDBRANCH  10  11
ENDBRANCH   9  10
ENDBRANCH   8   9
ENDBRANCH   7   8
ENDBRANCH   6   7
ENDBRANCH   5   6
ENDBRANCH   4   5
ENDBRANCH   3   4
ENDBRANCH   2   3
ENDBRANCH   1   2
BRANCH   1  14
HETATM   14  C   UNL     1      13.128  -6.357  -5.726  1.00  0.00     0.000 C 
BRANCH  14  15
HETATM   15  C   UNL     1      14.654  -6.375  -5.739  1.00  0.00     0.000 C 
BRANCH  15  16
HETATM   16  C   UNL     1      15.153  -7.448  -6.699  1.00  0.00     0.009 C 
BRANCH  16  17
HETATM   17  C   UNL     1      16.676  -7.518  -6.754  1.00  0.00     0.103 C 
BRANCH  17  18
HETATM   18  C   UNL     1      17.130  -8.604  -7.712  1.00  0.00     0.217 C 
HETATM   19  O   UNL     1      16.356  -9.328  -8.332  1.00  0.00    -0.274 OA
HETATM   20  N   UNL     1      18.498  -8.697  -7.838  1.00  0.00    -0.359 N 
HETATM   21  H   UNL     1      19.094  -8.142  -7.238  1.00  0.00     0.162 HD
BRANCH  20  22
HETATM   22  C   UNL     1      19.099  -9.699  -8.700  1.00  0.00     0.153 C 
BRANCH  22  23
HETATM   23  C   UNL     1      19.286 -11.063  -8.010  1.00  0.00     0.132 C 
HETATM   24  C   UNL     1      19.845 -12.083  -8.990  1.00  0.00     0.041 C 
BRANCH  23  25
HETATM   25  O   UNL     1      20.231 -10.965  -6.938  1.00  0.00    -0.394 OA
HETATM   26  H   UNL     1      20.865 -10.281  -7.212  1.00  0.00     0.210 HD
ENDBRANCH  23  25
ENDBRANCH  22  23
ENDBRANCH  20  22
ENDBRANCH  17  18
ENDBRANCH  16  17
ENDBRANCH  15  16
ENDBRANCH  14  15
ENDBRANCH   1  14
TORSDOF 18
