REMARK  7 active torsions:
REMARK  status: ('A' for Active; 'I' for Inactive)
REMARK       I    between atoms: C_2  and  N_4 
REMARK    1  A    between atoms: N_7  and  C_10 
REMARK    2  A    between atoms: C_13  and  O_16 
REMARK    3  A    between atoms: O_16  and  C_17 
REMARK    4  A    between atoms: C_17  and  C_18 
REMARK    5  A    between atoms: C_21  and  C_23 
REMARK    6  A    between atoms: C_21  and  C_30 
REMARK    7  A    between atoms: C_23  and  N_24 
ROOT
HETATM    1  C   UNL     1       7.974   7.857  -7.207  1.00  0.00     0.173 C 
HETATM    2  C   UNL     1       6.776   8.295  -8.005  1.00  0.00     0.206 C 
HETATM    3  O   UNL     1       6.891   7.652  -9.265  1.00  0.00    -0.347 OA
HETATM    4  C   UNL     1       8.271   7.254  -9.429  1.00  0.00     0.212 C 
HETATM    5  O   UNL     1       8.952   7.466  -8.174  1.00  0.00    -0.340 OA
ENDROOT
BRANCH   1   6
HETATM    6  C   UNL     1       7.656   6.751  -6.185  1.00  0.00     0.209 C 
BRANCH   6   7
HETATM    7  O   UNL     1       6.920   5.666  -6.762  1.00  0.00    -0.349 OA
BRANCH   7   8
HETATM    8  C   UNL     1       6.256   4.856  -5.877  1.00  0.00     0.069 A 
HETATM    9  C   UNL     1       5.290   4.009  -6.422  1.00  0.00     0.039 A 
HETATM   10  C   UNL     1       4.504   3.191  -5.592  1.00  0.00     0.032 A 
HETATM   11  C   UNL     1       4.652   3.204  -4.200  1.00  0.00     0.030 A 
HETATM   12  C   UNL     1       5.666   4.020  -3.683  1.00  0.00     0.032 A 
HETATM   13  C   UNL     1       6.468   4.825  -4.504  1.00  0.00     0.039 A 
BRANCH  11  14
HETATM   14  N   UNL     1       3.844   2.474  -3.354  1.00  0.00    -0.378 N 
HETATM   15  C   UNL     1       3.321   1.138  -3.677  1.00  0.00     0.143 C 
HETATM   16  C   UNL     1       1.780   1.099  -3.589  1.00  0.00     0.145 C 
HETATM   17  N   UNL     1       1.284   1.717  -2.349  1.00  0.00    -0.349 N 
HETATM   18  C   UNL     1       0.456   1.133  -1.410  1.00  0.00     0.215 C 
HETATM   19  C   UNL     1       1.800   3.068  -2.108  1.00  0.00     0.145 C 
HETATM   20  C   UNL     1       0.010  -0.283  -1.662  1.00  0.00     0.117 C 
HETATM   21  O   UNL     1       0.100   1.715  -0.385  1.00  0.00    -0.274 OA
HETATM   22  C   UNL     1       3.338   3.074  -2.104  1.00  0.00     0.143 C 
ENDBRANCH  11  14
ENDBRANCH   7   8
ENDBRANCH   6   7
ENDBRANCH   1   6
BRANCH   4  23
HETATM   23  C   UNL     1       8.269   5.735  -9.726  1.00  0.00     0.203 C 
BRANCH  23  24
HETATM   24  N   UNL     1       7.631   5.345 -10.960  1.00  0.00    -0.346 N 
HETATM   25  C   UNL     1       8.232   4.740 -12.030  1.00  0.00     0.109 A 
HETATM   26  C   UNL     1       7.204   4.443 -12.892  1.00  0.00     0.106 A 
HETATM   27  N   UNL     1       6.001   4.853 -12.379  1.00  0.00    -0.361 N 
HETATM   28  C   UNL     1       6.286   5.381 -11.210  1.00  0.00     0.182 A 
ATOM     29  HN  UNL     1       5.081   4.767 -12.812  1.00  0.00     0.166 HD
ENDBRANCH  23  24
ENDBRANCH   4  23
BRANCH   4  30
HETATM   30  C   UNL     1       8.950   8.106 -10.518  1.00  0.00     0.027 A 
HETATM   31  C   UNL     1      10.301   7.960 -10.901  1.00  0.00     0.047 A 
HETATM   32  C   UNL     1      10.854   8.727 -11.941  1.00  0.00     0.048 A 
HETATM   33 CL   UNL     1      11.390   6.856 -10.134  1.00  0.00    -0.084 Cl
HETATM   34  C   UNL     1      10.080   9.673 -12.601  1.00  0.00     0.035 A 
HETATM   35  C   UNL     1       8.757   9.862 -12.233  1.00  0.00     0.024 A 
HETATM   36 CL   UNL     1      10.764  10.611 -13.869  1.00  0.00    -0.084 Cl
HETATM   37  C   UNL     1       8.200   9.086 -11.209  1.00  0.00     0.016 A 
ENDBRANCH   4  30
TORSDOF 7
