REMARK  3 active torsions:
REMARK  status: ('A' for Active; 'I' for Inactive)
REMARK    1  A    between atoms: C_2  and  C_9 
REMARK    2  A    between atoms: C_5  and  O_8 
REMARK    3  A    between atoms: C_9  and  O_10 
ROOT
HETATM    1  C   UNL     1      -0.562   1.501  -0.002  1.00  0.00     0.092 A 
HETATM    2  C   UNL     1      -1.743   0.862  -0.009  1.00  0.00     0.080 A 
HETATM    3  O   UNL     1      -1.847  -0.523   0.003  1.00  0.00    -0.322 OA
HETATM    4  C   UNL     1      -0.688  -1.267   0.014  1.00  0.00     0.182 A 
HETATM    5  C   UNL     1       0.552  -0.766   0.019  1.00  0.00     0.138 A 
HETATM    6  C   UNL     1       0.693   0.721   0.020  1.00  0.00     0.209 A 
HETATM    7  O   UNL     1       1.778   1.294   0.027  1.00  0.00    -0.285 OA
ENDROOT
BRANCH   2   8
HETATM    8  C   UNL     1      -3.055   1.586  -0.056  1.00  0.00     0.229 C 
BRANCH   8   9
HETATM    9  O   UNL     1      -3.834   1.259   1.087  1.00  0.00    -0.394 OA
HETATM   10  H   UNL     1      -3.991   0.300   1.052  1.00  0.00     0.209 HD
ENDBRANCH   8   9
ENDBRANCH   2   8
BRANCH   5  11
HETATM   11  O   UNL     1       1.688  -1.550   0.020  1.00  0.00    -0.355 OA
HETATM   12  H   UNL     1       1.428  -2.486   0.016  1.00  0.00     0.218 HD
ENDBRANCH   5  11
TORSDOF 3
