REMARK  17 active torsions:
REMARK  status: ('A' for Active; 'I' for Inactive)
REMARK    1  A    between atoms: C_1  and  C_2 
REMARK    2  A    between atoms: C_1  and  O_24 
REMARK    3  A    between atoms: C_3  and  O_23 
REMARK    4  A    between atoms: C_4  and  O_22 
REMARK    5  A    between atoms: C_5  and  O_21 
REMARK    6  A    between atoms: C_6  and  O_8 
REMARK    7  A    between atoms: O_8  and  C_9 
REMARK    8  A    between atoms: C_9  and  C_10 
REMARK    9  A    between atoms: C_9  and  C_14 
REMARK   10  A    between atoms: C_10  and  C_11 
REMARK   11  A    between atoms: C_10  and  O_13 
REMARK   12  A    between atoms: C_11  and  O_12 
REMARK   13  A    between atoms: C_14  and  C_15 
REMARK   14  A    between atoms: C_14  and  O_20 
REMARK   15  A    between atoms: C_15  and  C_16 
REMARK   16  A    between atoms: C_15  and  O_19 
REMARK   17  A    between atoms: C_16  and  O_18 
ROOT
HETATM    1  C   UNL     1      -1.543   4.454   0.113  1.00  0.00     0.187 C 
ENDROOT
BRANCH   1   2
HETATM    2  O   UNL     1      -0.851   3.709   1.148  1.00  0.00    -0.348 OA
BRANCH   2   3
HETATM    3  C   UNL     1      -0.580   2.311   0.911  1.00  0.00     0.292 C 
HETATM    4  C   UNL     1       0.119   1.795   2.191  1.00  0.00     0.204 C 
HETATM    5  C   UNL     1       0.535   0.334   2.014  1.00  0.00     0.183 C 
HETATM    6  C   UNL     1       1.446   0.184   0.785  1.00  0.00     0.180 C 
HETATM    7  C   UNL     1       0.764   0.793  -0.453  1.00  0.00     0.179 C 
HETATM    8  O   UNL     1       0.268   2.142  -0.227  1.00  0.00    -0.348 OA
BRANCH   4   9
HETATM    9  O   UNL     1       1.309   2.579   2.457  1.00  0.00    -0.388 OA
HETATM   10  H   UNL     1       1.064   3.494   2.214  1.00  0.00     0.210 HD
ENDBRANCH   4   9
BRANCH   5  11
HETATM   11  O   UNL     1       1.197  -0.125   3.195  1.00  0.00    -0.390 OA
HETATM   12  H   UNL     1       1.898   0.533   3.380  1.00  0.00     0.210 HD
ENDBRANCH   5  11
BRANCH   6  13
HETATM   13  O   UNL     1       2.711   0.829   1.003  1.00  0.00    -0.390 OA
HETATM   14  H   UNL     1       2.528   1.700   1.415  1.00  0.00     0.210 HD
ENDBRANCH   6  13
BRANCH   7  15
HETATM   15  C   UNL     1      -0.352  -0.120  -0.990  1.00  0.00     0.198 C 
BRANCH  15  16
HETATM   16  O   UNL     1      -0.923   0.450  -2.165  1.00  0.00    -0.398 OA
HETATM   17  H   UNL     1      -0.864   1.414  -2.044  1.00  0.00     0.209 HD
ENDBRANCH  15  16
ENDBRANCH   7  15
ENDBRANCH   2   3
ENDBRANCH   1   2
BRANCH   1  18
HETATM   18  C   UNL     1      -2.961   3.874  -0.202  1.00  0.00     0.173 C 
BRANCH  18  19
HETATM   19  C   UNL     1      -3.835   4.689  -1.171  1.00  0.00     0.198 C 
BRANCH  19  20
HETATM   20  O   UNL     1      -5.020   3.956  -1.493  1.00  0.00    -0.398 OA
HETATM   21  H   UNL     1      -4.772   3.012  -1.519  1.00  0.00     0.209 HD
ENDBRANCH  19  20
ENDBRANCH  18  19
BRANCH  18  22
HETATM   22  O   UNL     1      -2.828   2.573  -0.823  1.00  0.00    -0.391 OA
HETATM   23  H   UNL     1      -2.493   2.711  -1.728  1.00  0.00     0.210 HD
ENDBRANCH  18  22
ENDBRANCH   1  18
BRANCH   1  24
HETATM   24  C   UNL     1      -1.600   5.937   0.620  1.00  0.00     0.189 C 
BRANCH  24  25
HETATM   25  C   UNL     1      -0.246   6.573   0.987  1.00  0.00     0.246 C 
BRANCH  25  26
HETATM   26  C   UNL     1       0.656   6.787  -0.231  1.00  0.00     0.172 C 
HETATM   27  O   UNL     1       0.689   6.073  -1.215  1.00  0.00    -0.648 OA
BRANCH  26  28
HETATM   28  O   UNL     1       1.392   7.923  -0.114  1.00  0.00    -0.774 OA
HETATM   29  H   UNL     1       1.128   8.387   0.719  1.00  0.00     0.167 HD
ENDBRANCH  26  28
ENDBRANCH  25  26
BRANCH  25  30
HETATM   30  O   UNL     1      -0.476   7.901   1.528  1.00  0.00    -0.382 OA
HETATM   31  H   UNL     1      -1.230   8.266   1.012  1.00  0.00     0.210 HD
ENDBRANCH  25  30
ENDBRANCH  24  25
BRANCH  24  32
HETATM   32  O   UNL     1      -2.262   6.838  -0.277  1.00  0.00    -0.390 OA
HETATM   33  H   UNL     1      -1.849   6.758  -1.159  1.00  0.00     0.210 HD
ENDBRANCH  24  32
ENDBRANCH   1  24
TORSDOF 17
