REMARK  13 active torsions:
REMARK  status: ('A' for Active; 'I' for Inactive)
REMARK    1  A    between atoms: C_2  and  C_3 
REMARK    2  A    between atoms: C_3  and  C_4 
REMARK    3  A    between atoms: C_4  and  C_5 
REMARK    4  A    between atoms: C_5  and  C_6 
REMARK    5  A    between atoms: C_6  and  C_7 
REMARK    6  A    between atoms: C_7  and  C_8 
REMARK    7  A    between atoms: C_8  and  C_9 
REMARK    8  A    between atoms: C_9  and  C_10 
REMARK    9  A    between atoms: C_10  and  C_11 
REMARK   10  A    between atoms: C_11  and  C_12 
REMARK   11  A    between atoms: C_12  and  N_13 
REMARK   12  A    between atoms: N_13  and  C_16 
REMARK   13  A    between atoms: C_16  and  C_17 
ROOT
HETATM    1  C   UNL     1      10.608  -4.999  -2.667  1.00  0.00     0.002 C 
ENDROOT
BRANCH   1   2
HETATM    2  C   UNL     1       9.081  -4.956  -2.745  1.00  0.00     0.000 C 
BRANCH   2   3
HETATM    3  C   UNL     1       8.512  -3.711  -2.072  1.00  0.00     0.000 C 
BRANCH   3   4
HETATM    4  C   UNL     1       6.992  -3.716  -2.075  1.00  0.00     0.000 C 
BRANCH   4   5
HETATM    5  C   UNL     1       6.474  -2.454  -1.395  1.00  0.00     0.000 C 
BRANCH   5   6
HETATM    6  C   UNL     1       4.954  -2.440  -1.378  1.00  0.00     0.000 C 
BRANCH   6   7
HETATM    7  C   UNL     1       4.438  -1.167  -0.718  1.00  0.00     0.000 C 
BRANCH   7   8
HETATM    8  C   UNL     1       2.915  -1.150  -0.712  1.00  0.00    -0.000 C 
BRANCH   8   9
HETATM    9  C   UNL     1       2.386   0.118  -0.054  1.00  0.00    -0.005 C 
HETATM   10  C   UNL     1       0.868   0.134  -0.049  1.00  0.00     0.005 C 
ENDBRANCH   8   9
ENDBRANCH   7   8
ENDBRANCH   6   7
ENDBRANCH   5   6
ENDBRANCH   4   5
ENDBRANCH   3   4
ENDBRANCH   2   3
ENDBRANCH   1   2
BRANCH   1  11
HETATM   11  C   UNL     1      11.172  -4.943  -1.242  1.00  0.00     0.028 C 
BRANCH  11  12
HETATM   12  C   UNL     1      10.664  -6.090  -0.360  1.00  0.00     0.237 C 
BRANCH  12  13
HETATM   13  N   UNL     1      11.112  -5.952   1.102  1.00  0.00    -0.065 N 
HETATM   14  C   UNL     1      12.628  -5.981   1.208  1.00  0.00     0.272 C 
HETATM   15  C   UNL     1      10.525  -4.744   1.782  1.00  0.00     0.272 C 
BRANCH  13  16
HETATM   16  C   UNL     1      10.568  -7.244   1.871  1.00  0.00     0.349 C 
BRANCH  16  17
HETATM   17  C   UNL     1      11.052  -8.629   1.359  1.00  0.00     0.199 C 
HETATM   18  O   UNL     1      10.325  -9.135   0.465  1.00  0.00    -0.647 OA
HETATM   19  O   UNL     1      12.173  -8.983   1.824  1.00  0.00    -0.647 OA
ENDBRANCH  16  17
ENDBRANCH  13  16
ENDBRANCH  12  13
ENDBRANCH  11  12
ENDBRANCH   1  11
TORSDOF 13
