REMARK  11 active torsions:
REMARK  status: ('A' for Active; 'I' for Inactive)
REMARK    1  A    between atoms: C_2  and  C_3 
REMARK    2  A    between atoms: C_3  and  C_4 
REMARK    3  A    between atoms: C_4  and  C_5 
REMARK    4  A    between atoms: C_5  and  C_6 
REMARK    5  A    between atoms: C_6  and  C_7 
REMARK    6  A    between atoms: C_7  and  C_8 
REMARK    7  A    between atoms: C_8  and  C_9 
REMARK    8  A    between atoms: C_9  and  C_10 
REMARK    9  A    between atoms: C_10  and  C_11 
REMARK   10  A    between atoms: C_11  and  C_12 
REMARK   11  A    between atoms: C_12  and  O_13 
ROOT
HETATM    1  C   UNL     1       7.097  -4.177  -0.686  1.00  0.00     0.000 C 
ENDROOT
BRANCH   1   2
HETATM    2  C   UNL     1       6.572  -2.759  -0.479  1.00  0.00     0.000 C 
BRANCH   2   3
HETATM    3  C   UNL     1       5.047  -2.739  -0.477  1.00  0.00     0.000 C 
BRANCH   3   4
HETATM    4  C   UNL     1       4.519  -1.321  -0.271  1.00  0.00     0.000 C 
BRANCH   4   5
HETATM    5  C   UNL     1       2.992  -1.307  -0.268  1.00  0.00    -0.000 C 
BRANCH   5   6
HETATM    6  C   UNL     1       2.455   0.108  -0.065  1.00  0.00    -0.005 C 
HETATM    7  C   UNL     1       0.935   0.118  -0.060  1.00  0.00     0.005 C 
ENDBRANCH   5   6
ENDBRANCH   4   5
ENDBRANCH   3   4
ENDBRANCH   2   3
ENDBRANCH   1   2
BRANCH   1   8
HETATM    8  C   UNL     1       8.622  -4.197  -0.690  1.00  0.00     0.000 C 
BRANCH   8   9
HETATM    9  C   UNL     1       9.150  -5.614  -0.897  1.00  0.00     0.000 C 
BRANCH   9  10
HETATM   10  C   UNL     1      10.677  -5.630  -0.900  1.00  0.00     0.002 C 
BRANCH  10  11
HETATM   11  C   UNL     1      11.211  -7.042  -1.106  1.00  0.00     0.026 C 
BRANCH  11  12
HETATM   12  C   UNL     1      12.733  -7.063  -1.108  1.00  0.00     0.164 C 
BRANCH  12  13
HETATM   13  O   UNL     1      13.197  -8.392  -1.302  1.00  0.00    -0.401 OA
HETATM   14  H   UNL     1      12.843  -8.934  -0.578  1.00  0.00     0.209 HD
ENDBRANCH  12  13
ENDBRANCH  11  12
ENDBRANCH  10  11
ENDBRANCH   9  10
ENDBRANCH   8   9
ENDBRANCH   1   8
TORSDOF 11
