REMARK  14 active torsions:
REMARK  status: ('A' for Active; 'I' for Inactive)
REMARK    1  A    between atoms: C_2  and  C_3 
REMARK    2  A    between atoms: C_3  and  C_4 
REMARK    3  A    between atoms: C_4  and  C_5 
REMARK    4  A    between atoms: C_5  and  C_6 
REMARK    5  A    between atoms: C_6  and  C_7 
REMARK    6  A    between atoms: C_7  and  C_8 
REMARK    7  A    between atoms: C_8  and  C_9 
REMARK    8  A    between atoms: C_9  and  C_10 
REMARK    9  A    between atoms: C_10  and  C_11 
REMARK   10  A    between atoms: C_11  and  C_12 
REMARK   11  A    between atoms: C_12  and  O_13 
REMARK   12  A    between atoms: O_13  and  C_14 
REMARK   13  A    between atoms: C_14  and  C_16 
REMARK   14  A    between atoms: C_16  and  O_18 
ROOT
HETATM    1  C   UNL     1      10.694   5.390   2.196  1.00  0.00     0.002 C 
ENDROOT
BRANCH   1   2
HETATM    2  C   UNL     1       9.169   5.370   2.186  1.00  0.00     0.000 C 
BRANCH   2   3
HETATM    3  C   UNL     1       8.640   4.051   1.632  1.00  0.00     0.000 C 
BRANCH   3   4
HETATM    4  C   UNL     1       7.120   4.035   1.622  1.00  0.00     0.000 C 
BRANCH   4   5
HETATM    5  C   UNL     1       6.604   2.717   1.064  1.00  0.00     0.000 C 
BRANCH   5   6
HETATM    6  C   UNL     1       5.081   2.700   1.054  1.00  0.00     0.000 C 
BRANCH   6   7
HETATM    7  C   UNL     1       4.561   1.381   0.500  1.00  0.00     0.000 C 
BRANCH   7   8
HETATM    8  C   UNL     1       3.036   1.370   0.491  1.00  0.00    -0.000 C 
BRANCH   8   9
HETATM    9  C   UNL     1       2.504   0.053  -0.061  1.00  0.00    -0.005 C 
HETATM   10  C   UNL     1       0.986   0.044  -0.067  1.00  0.00     0.005 C 
ENDBRANCH   8   9
ENDBRANCH   7   8
ENDBRANCH   6   7
ENDBRANCH   5   6
ENDBRANCH   4   5
ENDBRANCH   3   4
ENDBRANCH   2   3
ENDBRANCH   1   2
BRANCH   1  11
HETATM   11  C   UNL     1      11.260   5.225   0.789  1.00  0.00     0.027 C 
BRANCH  11  12
HETATM   12  C   UNL     1      12.779   5.248   0.804  1.00  0.00     0.178 C 
BRANCH  12  13
HETATM   13  O   UNL     1      13.277   5.088  -0.532  1.00  0.00    -0.319 OA
BRANCH  13  14
HETATM   14  C   UNL     1      13.242   6.240  -1.267  1.00  0.00     0.287 C 
HETATM   15  O   UNL     1      12.839   7.318  -0.864  1.00  0.00    -0.262 OA
BRANCH  14  16
HETATM   16  C   UNL     1      13.760   6.007  -2.692  1.00  0.00     0.213 C 
HETATM   17  C   UNL     1      12.921   4.977  -3.423  1.00  0.00     0.050 C 
BRANCH  16  18
HETATM   18  O   UNL     1      13.737   7.213  -3.459  1.00  0.00    -0.386 OA
HETATM   19  H   UNL     1      12.876   7.640  -3.288  1.00  0.00     0.210 HD
ENDBRANCH  16  18
ENDBRANCH  14  16
ENDBRANCH  13  14
ENDBRANCH  12  13
ENDBRANCH  11  12
ENDBRANCH   1  11
TORSDOF 14
