REMARK  11 active torsions:
REMARK  status: ('A' for Active; 'I' for Inactive)
REMARK    1  A    between atoms: C_2  and  C_3 
REMARK    2  A    between atoms: C_3  and  C_4 
REMARK    3  A    between atoms: C_4  and  C_5 
REMARK    4  A    between atoms: C_5  and  C_6 
REMARK    5  A    between atoms: C_6  and  C_7 
REMARK    6  A    between atoms: C_7  and  C_8 
REMARK    7  A    between atoms: C_8  and  C_9 
REMARK    8  A    between atoms: C_9  and  C_10 
REMARK    9  A    between atoms: C_10  and  C_11 
REMARK   10  A    between atoms: C_11  and  C_12 
REMARK   11  A    between atoms: C_12  and  N_13 
ROOT
HETATM    1  C   UNL     1      10.714   3.940  -4.207  1.00  0.00     0.002 C 
ENDROOT
BRANCH   1   2
HETATM    2  C   UNL     1       9.190   3.918  -4.209  1.00  0.00     0.000 C 
BRANCH   2   3
HETATM    3  C   UNL     1       8.665   2.926  -3.181  1.00  0.00     0.000 C 
BRANCH   3   4
HETATM    4  C   UNL     1       7.142   2.908  -3.187  1.00  0.00     0.000 C 
BRANCH   4   5
HETATM    5  C   UNL     1       6.618   1.916  -2.157  1.00  0.00     0.000 C 
BRANCH   5   6
HETATM    6  C   UNL     1       5.096   1.892  -2.161  1.00  0.00     0.000 C 
BRANCH   6   7
HETATM    7  C   UNL     1       4.572   0.898  -1.132  1.00  0.00     0.000 C 
BRANCH   7   8
HETATM    8  C   UNL     1       3.048   0.874  -1.136  1.00  0.00    -0.000 C 
BRANCH   8   9
HETATM    9  C   UNL     1       2.514  -0.121  -0.109  1.00  0.00    -0.005 C 
HETATM   10  C   UNL     1       0.996  -0.145  -0.115  1.00  0.00     0.005 C 
ENDBRANCH   8   9
ENDBRANCH   7   8
ENDBRANCH   6   7
ENDBRANCH   5   6
ENDBRANCH   4   5
ENDBRANCH   3   4
ENDBRANCH   2   3
ENDBRANCH   1   2
BRANCH   1  11
HETATM   11  C   UNL     1      11.234   4.936  -5.240  1.00  0.00     0.020 C 
BRANCH  11  12
HETATM   12  C   UNL     1      12.759   4.957  -5.250  1.00  0.00     0.125 C 
BRANCH  12  13
HETATM   13  N   UNL     1      13.293   5.907  -6.217  1.00  0.00    -0.352 N 
HETATM   14  C   UNL     1      13.515   5.439  -7.583  1.00  0.00     0.125 C 
HETATM   15  C   UNL     1      14.999   5.277  -7.895  1.00  0.00     0.020 C 
HETATM   16  C   UNL     1      15.687   6.599  -8.227  1.00  0.00     0.002 C 
HETATM   17  C   UNL     1      15.657   7.626  -7.098  1.00  0.00     0.009 C 
HETATM   18  C   UNL     1      14.254   8.121  -6.765  1.00  0.00     0.103 C 
HETATM   19  C   UNL     1      13.544   7.203  -5.793  1.00  0.00     0.219 C 
HETATM   20  O   UNL     1      13.236   7.607  -4.674  1.00  0.00    -0.273 OA
ENDBRANCH  12  13
ENDBRANCH  11  12
ENDBRANCH   1  11
TORSDOF 11
