REMARK  19 active torsions:
REMARK  status: ('A' for Active; 'I' for Inactive)
REMARK    1  A    between atoms: C_2  and  C_3 
REMARK    2  A    between atoms: C_3  and  C_4 
REMARK    3  A    between atoms: C_4  and  C_5 
REMARK    4  A    between atoms: C_5  and  C_6 
REMARK    5  A    between atoms: C_6  and  C_7 
REMARK    6  A    between atoms: C_7  and  C_8 
REMARK    7  A    between atoms: C_8  and  C_9 
REMARK    8  A    between atoms: C_9  and  C_10 
REMARK    9  A    between atoms: C_10  and  C_11 
REMARK   10  A    between atoms: C_11  and  C_12 
REMARK       I    between atoms: C_12  and  N_14 
REMARK   11  A    between atoms: N_14  and  C_15 
REMARK   12  A    between atoms: C_15  and  C_16 
REMARK   13  A    between atoms: C_16  and  C_17 
REMARK   14  A    between atoms: C_17  and  N_18 
REMARK   15  A    between atoms: N_18  and  C_21 
REMARK   16  A    between atoms: C_21  and  C_22 
REMARK   17  A    between atoms: C_22  and  C_23 
REMARK   18  A    between atoms: C_22  and  O_28 
REMARK   19  A    between atoms: C_23  and  S_24 
ROOT
HETATM    1  C   UNL     1      12.650  -6.398   3.016  1.00  0.00     0.217 C 
HETATM    2  O   UNL     1      13.236  -5.344   2.773  1.00  0.00    -0.274 OA
HETATM    3  N   UNL     1      13.307  -7.537   3.429  1.00  0.00    -0.361 N 
HETATM    4  H   UNL     1      12.791  -8.400   3.581  1.00  0.00     0.162 HD
ENDROOT
BRANCH   3   5
HETATM    5  C   UNL     1      14.751  -7.551   3.446  1.00  0.00     0.124 C 
BRANCH   5   6
HETATM    6  C   UNL     1      15.281  -6.840   4.686  1.00  0.00     0.047 C 
BRANCH   6   7
HETATM    7  C   UNL     1      14.865  -7.622   5.930  1.00  0.00     0.238 C 
BRANCH   7   8
HETATM    8  N   UNL     1      15.228  -6.915   7.249  1.00  0.00    -0.072 N 
HETATM    9  C   UNL     1      16.751  -6.776   7.269  1.00  0.00     0.272 C 
HETATM   10  C   UNL     1      14.536  -5.565   7.336  1.00  0.00     0.272 C 
BRANCH   8  11
HETATM   11  C   UNL     1      14.860  -7.801   8.488  1.00  0.00     0.269 C 
BRANCH  11  12
HETATM   12  C   UNL     1      13.372  -7.924   8.909  1.00  0.00     0.160 C 
BRANCH  12  13
HETATM   13  C   UNL     1      12.388  -8.673   8.024  1.00  0.00     0.198 C 
BRANCH  13  14
HETATM   14  S   UNL     1      12.920 -10.314   7.630  1.00  0.00     0.104 S 
HETATM   15  O   UNL     1      11.780 -10.866   6.921  1.00  0.00    -0.595 OA
HETATM   16  O   UNL     1      14.089 -10.071   6.797  1.00  0.00    -0.595 OA
HETATM   17  O   UNL     1      13.201 -10.844   8.964  1.00  0.00    -0.595 OA
ENDBRANCH  13  14
ENDBRANCH  12  13
BRANCH  12  18
HETATM   18  O   UNL     1      13.339  -8.457  10.252  1.00  0.00    -0.393 OA
HETATM   19  H   UNL     1      13.329  -9.447  10.170  1.00  0.00     0.210 HD
ENDBRANCH  12  18
ENDBRANCH  11  12
ENDBRANCH   8  11
ENDBRANCH   7   8
ENDBRANCH   6   7
ENDBRANCH   5   6
ENDBRANCH   3   5
BRANCH   1  20
HETATM   20  C   UNL     1      11.145  -6.523   2.962  1.00  0.00     0.103 C 
BRANCH  20  21
HETATM   21  C   UNL     1      10.595  -5.689   1.811  1.00  0.00     0.009 C 
BRANCH  21  22
HETATM   22  C   UNL     1       9.074  -5.749   1.747  1.00  0.00     0.000 C 
BRANCH  22  23
HETATM   23  C   UNL     1       8.572  -4.918   0.570  1.00  0.00     0.000 C 
BRANCH  23  24
HETATM   24  C   UNL     1       7.052  -4.945   0.483  1.00  0.00     0.000 C 
BRANCH  24  25
HETATM   25  C   UNL     1       6.571  -4.113  -0.702  1.00  0.00     0.000 C 
BRANCH  25  26
HETATM   26  C   UNL     1       5.050  -4.137  -0.795  1.00  0.00     0.000 C 
BRANCH  26  27
HETATM   27  C   UNL     1       4.561  -3.308  -1.979  1.00  0.00     0.000 C 
BRANCH  27  28
HETATM   28  C   UNL     1       3.038  -3.337  -2.063  1.00  0.00    -0.000 C 
BRANCH  28  29
HETATM   29  C   UNL     1       2.532  -2.511  -3.242  1.00  0.00    -0.005 C 
HETATM   30  C   UNL     1       1.015  -2.542  -3.320  1.00  0.00     0.005 C 
ENDBRANCH  28  29
ENDBRANCH  27  28
ENDBRANCH  26  27
ENDBRANCH  25  26
ENDBRANCH  24  25
ENDBRANCH  23  24
ENDBRANCH  22  23
ENDBRANCH  21  22
ENDBRANCH  20  21
ENDBRANCH   1  20
TORSDOF 19
