REMARK  18 active torsions:
REMARK  status: ('A' for Active; 'I' for Inactive)
REMARK    1  A    between atoms: C_2  and  C_3 
REMARK    2  A    between atoms: C_3  and  C_4 
REMARK    3  A    between atoms: C_4  and  C_5 
REMARK    4  A    between atoms: C_5  and  C_6 
REMARK    5  A    between atoms: C_6  and  C_7 
REMARK    6  A    between atoms: C_7  and  C_8 
REMARK    7  A    between atoms: C_8  and  C_9 
REMARK    8  A    between atoms: C_9  and  C_10 
REMARK    9  A    between atoms: C_10  and  C_11 
REMARK   10  A    between atoms: C_11  and  C_12 
REMARK       I    between atoms: C_12  and  N_14 
REMARK   11  A    between atoms: N_14  and  C_15 
REMARK   12  A    between atoms: C_15  and  C_16 
REMARK   13  A    between atoms: C_16  and  C_17 
REMARK   14  A    between atoms: C_17  and  C_18 
REMARK   15  A    between atoms: C_18  and  C_19 
REMARK   16  A    between atoms: C_19  and  C_20 
REMARK   17  A    between atoms: C_19  and  N_23 
REMARK   18  A    between atoms: C_20  and  O_22 
ROOT
HETATM    1  C   UNK     1      12.694   5.108   5.070  1.00  0.00     0.217 C 
HETATM    2  O   UNK     1      13.302   4.369   4.306  1.00  0.00    -0.274 OA
HETATM    3  N   UNK     1      13.315   5.961   5.959  1.00  0.00    -0.361 N 
HETATM    4  H   UNK     1      12.765   6.579   6.543  1.00  0.00     0.162 HD
ENDROOT
BRANCH   3   5
HETATM    5  C   UNK     1      14.762   6.025   6.043  1.00  0.00     0.122 C 
BRANCH   5   6
HETATM    6  C   UNK     1      15.348   7.022   5.047  1.00  0.00     0.020 C 
BRANCH   6   7
HETATM    7  C   UNK     1      16.867   6.995   5.132  1.00  0.00     0.004 C 
BRANCH   7   8
HETATM    8  C   UNK     1      17.512   8.007   4.186  1.00  0.00     0.046 C 
BRANCH   8   9
HETATM    9  C   UNK     1      19.034   7.976   4.321  1.00  0.00     0.314 C 
BRANCH   9  10
HETATM   10  C   UNK     1      19.701   8.990   3.417  1.00  0.00     0.173 C 
HETATM   11  O   UNK     1      20.389   9.883   3.904  1.00  0.00    -0.648 OA
BRANCH  10  12
HETATM   12  O   UNK     1      19.534   8.823   2.093  1.00  0.00    -0.775 OA
HETATM   13  H   UNK     1      18.995   8.057   1.821  1.00  0.00     0.167 HD
ENDBRANCH  10  12
ENDBRANCH   9  10
BRANCH   9  14
HETATM   14  N   UNK     1      19.393   8.380   5.692  1.00  0.00     0.093 N 
HETATM   15  H   UNK     1      19.127   9.366   5.764  1.00  0.00     0.314 HD
HETATM   16  H   UNK     1      20.411   8.416   5.772  1.00  0.00     0.314 HD
ENDBRANCH   9  14
ENDBRANCH   8   9
ENDBRANCH   7   8
ENDBRANCH   6   7
ENDBRANCH   5   6
ENDBRANCH   3   5
BRANCH   1  17
HETATM   17  C   UNK     1      11.173   5.145   5.117  1.00  0.00     0.103 C 
BRANCH  17  18
HETATM   18  C   UNK     1      10.605   4.129   4.126  1.00  0.00     0.009 C 
BRANCH  18  19
HETATM   19  C   UNK     1       9.084   4.116   4.117  1.00  0.00     0.000 C 
BRANCH  19  20
HETATM   20  C   UNK     1       8.572   3.087   3.115  1.00  0.00     0.000 C 
BRANCH  20  21
HETATM   21  C   UNK     1       7.052   3.074   3.106  1.00  0.00     0.000 C 
BRANCH  21  22
HETATM   22  C   UNK     1       6.540   2.049   2.108  1.00  0.00     0.000 C 
BRANCH  22  23
HETATM   23  C   UNK     1       5.020   2.040   2.105  1.00  0.00     0.000 C 
BRANCH  23  24
HETATM   24  C   UNK     1       4.507   1.013   1.109  1.00  0.00     0.000 C 
BRANCH  24  25
HETATM   25  C   UNK     1       2.987   1.002   1.106  1.00  0.00    -0.000 C 
BRANCH  25  26
HETATM   26  C   UNK     1       2.464  -0.025   0.113  1.00  0.00    -0.005 C 
HETATM   27  C   UNK     1       0.948  -0.032   0.111  1.00  0.00     0.005 C 
ENDBRANCH  25  26
ENDBRANCH  24  25
ENDBRANCH  23  24
ENDBRANCH  22  23
ENDBRANCH  21  22
ENDBRANCH  20  21
ENDBRANCH  19  20
ENDBRANCH  18  19
ENDBRANCH  17  18
ENDBRANCH   1  17
TORSDOF 18
