REMARK  1 active torsions:
REMARK  status: ('A' for Active; 'I' for Inactive)
REMARK    1  A    between atoms: C_5  and  C_8 
ROOT
HETATM    1  C   UNL     1       2.546   0.096   0.098  1.00  0.00     0.043 C 
HETATM    2  C   UNL     1       1.046   0.073   0.034  1.00  0.00    -0.087 C 
HETATM    3  C   UNL     1       0.318   1.190  -0.132  1.00  0.00    -0.024 C 
HETATM    4  C   UNL     1      -1.185   1.211  -0.183  1.00  0.00     0.036 C 
HETATM    5  C   UNL     1      -1.858  -0.106   0.268  1.00  0.00     0.017 C 
HETATM    6  C   UNL     1      -1.064  -1.305  -0.282  1.00  0.00     0.013 C 
HETATM    7  C   UNL     1       0.402  -1.282   0.158  1.00  0.00     0.034 C 
ENDROOT
BRANCH   5   8
HETATM    8  C   UNL     1      -3.351  -0.114  -0.078  1.00  0.00    -0.089 C 
HETATM    9  C   UNL     1      -3.946  -1.008  -0.888  1.00  0.00     0.014 C 
HETATM   10  C   UNL     1      -4.205   0.950   0.564  1.00  0.00     0.043 C 
ENDBRANCH   5   8
TORSDOF 1
