REMARK  14 active torsions:
REMARK  status: ('A' for Active; 'I' for Inactive)
REMARK    1  A    between atoms: C_2  and  C_3 
REMARK    2  A    between atoms: C_4  and  C_5 
REMARK    3  A    between atoms: C_5  and  C_6 
REMARK    4  A    between atoms: C_7  and  C_8 
REMARK    5  A    between atoms: C_8  and  C_9 
REMARK    6  A    between atoms: C_10  and  C_11 
REMARK    7  A    between atoms: C_11  and  C_12 
REMARK    8  A    between atoms: C_12  and  C_13 
REMARK    9  A    between atoms: C_13  and  C_14 
REMARK   10  A    between atoms: C_14  and  C_15 
REMARK   11  A    between atoms: C_15  and  C_16 
REMARK   12  A    between atoms: C_16  and  C_17 
REMARK   13  A    between atoms: C_17  and  C_18 
REMARK   14  A    between atoms: C_18  and  O_20 
ROOT
HETATM    1  C   UNL     1      10.884   7.400   0.640  1.00  0.00     0.027 C 
ENDROOT
BRANCH   1   2
HETATM    2  C   UNL     1      10.367   6.002   0.536  1.00  0.00    -0.030 C 
HETATM    3  C   UNL     1       9.057   5.717   0.508  1.00  0.00    -0.027 C 
BRANCH   3   4
HETATM    4  C   UNL     1       8.531   4.321   0.409  1.00  0.00     0.053 C 
BRANCH   4   5
HETATM    5  C   UNL     1       7.682   4.142  -0.810  1.00  0.00    -0.027 C 
HETATM    6  C   UNL     1       6.394   3.769  -0.752  1.00  0.00    -0.027 C 
BRANCH   6   7
HETATM    7  C   UNL     1       5.543   3.590  -1.969  1.00  0.00     0.053 C 
BRANCH   7   8
HETATM    8  C   UNL     1       5.013   2.192  -2.071  1.00  0.00    -0.027 C 
HETATM    9  C   UNL     1       3.702   1.907  -2.095  1.00  0.00    -0.031 C 
BRANCH   9  10
HETATM   10  C   UNL     1       3.174   0.510  -2.202  1.00  0.00     0.022 C 
HETATM   11  C   UNL     1       2.319   0.155  -0.997  1.00  0.00     0.009 C 
ENDBRANCH   9  10
ENDBRANCH   7   8
ENDBRANCH   6   7
ENDBRANCH   4   5
ENDBRANCH   3   4
ENDBRANCH   1   2
BRANCH   1  12
HETATM   12  C   UNL     1      11.738   7.748  -0.573  1.00  0.00     0.004 C 
BRANCH  12  13
HETATM   13  C   UNL     1      12.258   9.175  -0.460  1.00  0.00     0.000 C 
BRANCH  13  14
HETATM   14  C   UNL     1      13.112   9.532  -1.669  1.00  0.00     0.000 C 
BRANCH  14  15
HETATM   15  C   UNL     1      13.635  10.961  -1.552  1.00  0.00     0.001 C 
BRANCH  15  16
HETATM   16  C   UNL     1      14.487  11.316  -2.763  1.00  0.00     0.010 C 
BRANCH  16  17
HETATM   17  C   UNL     1      15.036  12.740  -2.690  1.00  0.00     0.110 C 
BRANCH  17  18
HETATM   18  C   UNL     1      15.871  13.030  -3.916  1.00  0.00     0.139 C 
HETATM   19  O   UNL     1      16.076  12.247  -4.823  1.00  0.00    -0.650 OA
BRANCH  18  20
HETATM   20  O   UNL     1      16.394  14.280  -3.927  1.00  0.00    -0.776 OA
HETATM   21  H   UNL     1      16.168  14.830  -3.151  1.00  0.00     0.167 HD
ENDBRANCH  18  20
ENDBRANCH  17  18
ENDBRANCH  16  17
ENDBRANCH  15  16
ENDBRANCH  14  15
ENDBRANCH  13  14
ENDBRANCH  12  13
ENDBRANCH   1  12
TORSDOF 14
