REMARK  8 active torsions:
REMARK  status: ('A' for Active; 'I' for Inactive)
REMARK    1  A    between atoms: CG_1  and  CD_2 
REMARK    2  A    between atoms: CG_1  and  CB_5 
REMARK    3  A    between atoms: CD_2  and  CE_3 
REMARK    4  A    between atoms: CE_3  and  NZ_4 
REMARK    5  A    between atoms: CB_5  and  CA_6 
REMARK    6  A    between atoms: CA_6  and  C_7 
REMARK    7  A    between atoms: CA_6  and  N_10 
REMARK    8  A    between atoms: C_7  and  OXT_9 
ROOT
ATOM      1  CA  LYS A   1       2.988   0.231   1.380  1.00  0.00     0.314 C 
ENDROOT
BRANCH   1   2
ATOM      2  CB  LYS A   1       2.494  -0.099  -0.037  1.00  0.00     0.046 C 
BRANCH   2   3
ATOM      3  CG  LYS A   1       0.964  -0.128  -0.129  1.00  0.00     0.004 C 
BRANCH   3   4
ATOM      4  CD  LYS A   1       0.469  -0.451  -1.540  1.00  0.00     0.030 C 
BRANCH   4   5
ATOM      5  CE  LYS A   1      -1.059  -0.430  -1.584  1.00  0.00     0.267 C 
BRANCH   5   6
ATOM      6  NZ  LYS A   1      -1.541  -0.737  -2.924  1.00  0.00     0.078 N 
ATOM      7  HZ1 LYS A   1      -1.211  -0.026  -3.577  1.00  0.00     0.312 HD
ATOM      8  HZ2 LYS A   1      -2.559  -0.679  -2.937  1.00  0.00     0.312 HD
ENDBRANCH   5   6
ENDBRANCH   4   5
ENDBRANCH   3   4
ENDBRANCH   2   3
ENDBRANCH   1   2
BRANCH   1   9
ATOM      9  C   LYS A   1       4.530   0.218   1.463  1.00  0.00     0.173 C 
ATOM     10  O   LYS A   1       5.207   1.193   1.757  1.00  0.00    -0.648 OA
BRANCH   9  11
ATOM     11  OXT LYS A   1       5.083  -0.992   1.225  1.00  0.00    -0.775 OA
ATOM     12  HXT LYS A   1       4.440  -1.704   1.051  1.00  0.00     0.167 HD
ENDBRANCH   9  11
ENDBRANCH   1   9
BRANCH   1  13
ATOM     13  N   LYS A   1       2.484   1.559   1.798  1.00  0.00     0.093 N 
ATOM     14  H1  LYS A   1       2.890   2.263   1.173  1.00  0.00     0.314 HD
ATOM     15  H2  LYS A   1       2.906   1.786   2.703  1.00  0.00     0.314 HD
ENDBRANCH   1  13
TORSDOF 8
