REMARK  7 active torsions:
REMARK  status: ('A' for Active; 'I' for Inactive)
REMARK    1  A    between atoms: C_5  and  C_34 
REMARK    2  A    between atoms: C_15  and  O_28 
REMARK    3  A    between atoms: C_19  and  O_26 
REMARK    4  A    between atoms: C_20  and  O_25 
REMARK    5  A    between atoms: C_21  and  C_23 
REMARK    6  A    between atoms: C_23  and  O_24 
REMARK    7  A    between atoms: C_34  and  O_36 
ROOT
HETATM    1  C   UNL     1       1.014  -1.112   0.290  1.00  0.00     0.010 C 
HETATM    2  C   UNL     1       2.063  -0.127  -0.216  1.00  0.00    -0.014 C 
HETATM    3  C   UNL     1       1.573   1.284   0.127  1.00  0.00     0.006 C 
HETATM    4  C   UNL     1       2.363   2.271  -0.715  1.00  0.00     0.021 C 
HETATM    5  C   UNL     1       3.812   2.267  -0.205  1.00  0.00     0.053 C 
HETATM    6  C   UNL     1       4.658   3.240  -1.003  1.00  0.00     0.022 C 
HETATM    7  C   UNL     1       6.011   3.257  -0.295  1.00  0.00     0.016 C 
HETATM    8  C   UNL     1       6.835   1.956  -0.422  1.00  0.00    -0.013 C 
HETATM    9  C   UNL     1       6.057   0.704  -0.640  1.00  0.00    -0.069 C 
HETATM   10  C   UNL     1       6.981  -0.240  -1.049  1.00  0.00    -0.022 C 
HETATM   11  C   UNL     1       8.669   0.031  -0.923  1.00  0.00     0.033 C 
HETATM   12  C   UNL     1       9.410   1.440  -0.097  1.00  0.00     0.007 C 
HETATM   13  C   UNL     1       8.010   1.360   0.797  1.00  0.00    -0.026 C 
HETATM   14  C   UNL     1       8.530   1.779   2.238  1.00  0.00     0.042 C 
HETATM   15  C   UNL     1       9.566   2.791   2.157  1.00  0.00     0.124 C 
HETATM   16  C   UNL     1       8.920   3.729   1.116  1.00  0.00     0.036 C 
HETATM   17  C   UNL     1       9.794   3.339  -0.070  1.00  0.00    -0.030 C 
HETATM   18  C   UNL     1      11.113   4.220   0.580  1.00  0.00     0.044 C 
HETATM   19  C   UNL     1      10.779   5.633   1.394  1.00  0.00     0.148 C 
HETATM   20  C   UNL     1       9.506   5.759   2.317  1.00  0.00     0.157 C 
HETATM   21  C   UNL     1       8.353   5.016   1.695  1.00  0.00     0.012 C 
HETATM   22  C   UNL     1       7.617   5.882   0.641  1.00  0.00     0.020 C 
HETATM   23  C   UNL     1       9.792   3.964  -1.497  1.00  0.00     0.016 C 
HETATM   24  C   UNL     1       7.451  -0.035   1.539  1.00  0.00     0.016 C 
HETATM   25  C   UNL     1       4.466   0.801  -0.457  1.00  0.00     0.038 C 
HETATM   26  C   UNL     1       3.576  -0.347   0.196  1.00  0.00    -0.005 C 
HETATM   27  C   UNL     1       3.742  -0.541   1.709  1.00  0.00     0.011 C 
HETATM   28  C   UNL     1       7.292   2.225  -1.978  1.00  0.00     0.021 C 
ENDROOT
BRANCH   5  29
HETATM   29  C   UNL     1       3.664   3.005   1.166  1.00  0.00     0.149 C 
HETATM   30  O   UNL     1       3.081   4.076   1.295  1.00  0.00    -0.649 OA
BRANCH  29  31
HETATM   31  O   UNL     1       4.286   2.497   2.229  1.00  0.00    -0.776 OA
HETATM   32  H   UNL     1       4.147   3.222   2.895  1.00  0.00     0.167 HD
ENDBRANCH  29  31
ENDBRANCH   5  29
BRANCH  15  33
HETATM   33  O   UNL     1       9.944   3.247   3.437  1.00  0.00    -0.395 OA
HETATM   34  H   UNL     1      10.937   3.342   3.446  1.00  0.00     0.210 HD
ENDBRANCH  15  33
BRANCH  21  35
HETATM   35  C   UNL     1       7.329   4.563   2.813  1.00  0.00     0.176 C 
BRANCH  35  36
HETATM   36  O   UNL     1       6.531   5.633   3.290  1.00  0.00    -0.400 OA
HETATM   37  H   UNL     1       6.534   5.551   4.260  1.00  0.00     0.209 HD
ENDBRANCH  35  36
ENDBRANCH  21  35
BRANCH  19  38
HETATM   38  O   UNL     1      10.810   6.701   0.441  1.00  0.00    -0.393 OA
HETATM   39  H   UNL     1       9.959   6.725  -0.021  1.00  0.00     0.210 HD
ENDBRANCH  19  38
BRANCH  20  40
HETATM   40  O   UNL     1       9.084   7.090   2.638  1.00  0.00    -0.392 OA
HETATM   41  H   UNL     1       8.139   7.032   2.903  1.00  0.00     0.210 HD
ENDBRANCH  20  40
TORSDOF 7
