REMARK  17 active torsions:
REMARK  status: ('A' for Active; 'I' for Inactive)
REMARK    1  A    between atoms: C_1  and  C_2 
REMARK    2  A    between atoms: C_1  and  O_24 
REMARK    3  A    between atoms: C_3  and  O_23 
REMARK    4  A    between atoms: C_4  and  O_22 
REMARK    5  A    between atoms: C_5  and  O_21 
REMARK    6  A    between atoms: C_6  and  O_8 
REMARK    7  A    between atoms: O_8  and  C_9 
REMARK    8  A    between atoms: C_9  and  C_10 
REMARK    9  A    between atoms: C_9  and  C_14 
REMARK   10  A    between atoms: C_10  and  C_11 
REMARK   11  A    between atoms: C_10  and  O_13 
REMARK   12  A    between atoms: C_11  and  O_12 
REMARK   13  A    between atoms: C_14  and  C_15 
REMARK   14  A    between atoms: C_14  and  O_20 
REMARK   15  A    between atoms: C_15  and  C_16 
REMARK   16  A    between atoms: C_15  and  O_19 
REMARK   17  A    between atoms: C_16  and  O_18 
ROOT
HETATM    1  C   UNL     1       4.953  -1.064  -3.114  1.00  0.00     0.187 C 
ENDROOT
BRANCH   1   2
HETATM    2  O   UNL     1       3.593  -0.693  -3.458  1.00  0.00    -0.348 OA
BRANCH   2   3
HETATM    3  C   UNL     1       2.585  -0.810  -2.434  1.00  0.00     0.292 C 
HETATM    4  C   UNL     1       1.269  -0.331  -3.084  1.00  0.00     0.204 C 
HETATM    5  C   UNL     1       0.142  -0.321  -2.051  1.00  0.00     0.183 C 
HETATM    6  C   UNL     1       0.532   0.542  -0.838  1.00  0.00     0.180 C 
HETATM    7  C   UNL     1       1.896   0.082  -0.277  1.00  0.00     0.179 C 
HETATM    8  O   UNL     1       2.913   0.004  -1.311  1.00  0.00    -0.348 OA
BRANCH   4   9
HETATM    9  O   UNL     1       1.429   1.012  -3.599  1.00  0.00    -0.388 OA
HETATM   10  H   UNL     1       2.327   1.025  -3.986  1.00  0.00     0.210 HD
ENDBRANCH   4   9
BRANCH   5  11
HETATM   11  O   UNL     1      -1.058   0.164  -2.659  1.00  0.00    -0.390 OA
HETATM   12  H   UNL     1      -0.813   1.011  -3.085  1.00  0.00     0.210 HD
ENDBRANCH   5  11
BRANCH   6  13
HETATM   13  O   UNL     1       0.609   1.928  -1.207  1.00  0.00    -0.390 OA
HETATM   14  H   UNL     1       1.118   1.979  -2.035  1.00  0.00     0.210 HD
ENDBRANCH   6  13
BRANCH   7  15
HETATM   15  C   UNL     1       1.748  -1.235   0.507  1.00  0.00     0.198 C 
BRANCH  15  16
HETATM   16  O   UNL     1       3.007  -1.673   1.007  1.00  0.00    -0.398 OA
HETATM   17  H   UNL     1       3.254  -2.465   0.495  1.00  0.00     0.209 HD
ENDBRANCH  15  16
ENDBRANCH   7  15
ENDBRANCH   2   3
ENDBRANCH   1   2
BRANCH   1  18
HETATM   18  C   UNL     1       5.062  -2.550  -2.644  1.00  0.00     0.173 C 
BRANCH  18  19
HETATM   19  C   UNL     1       6.481  -3.104  -2.443  1.00  0.00     0.198 C 
BRANCH  19  20
HETATM   20  O   UNL     1       6.403  -4.437  -1.926  1.00  0.00    -0.398 OA
HETATM   21  H   UNL     1       5.661  -4.433  -1.291  1.00  0.00     0.209 HD
ENDBRANCH  19  20
ENDBRANCH  18  19
BRANCH  18  22
HETATM   22  O   UNL     1       4.415  -2.707  -1.348  1.00  0.00    -0.391 OA
HETATM   23  H   UNL     1       4.785  -2.006  -0.773  1.00  0.00     0.210 HD
ENDBRANCH  18  22
ENDBRANCH   1  18
BRANCH   1  24
HETATM   24  C   UNL     1       5.803  -0.753  -4.389  1.00  0.00     0.189 C 
BRANCH  24  25
HETATM   25  C   UNL     1       5.702   0.710  -4.875  1.00  0.00     0.246 C 
BRANCH  25  26
HETATM   26  C   UNL     1       6.367   1.688  -3.912  1.00  0.00     0.172 C 
HETATM   27  O   UNL     1       6.746   1.410  -2.784  1.00  0.00    -0.648 OA
BRANCH  26  28
HETATM   28  O   UNL     1       6.568   2.902  -4.479  1.00  0.00    -0.774 OA
HETATM   29  H   UNL     1       6.339   2.864  -5.436  1.00  0.00     0.167 HD
ENDBRANCH  26  28
ENDBRANCH  25  26
BRANCH  25  30
HETATM   30  O   UNL     1       6.397   0.873  -6.129  1.00  0.00    -0.382 OA
HETATM   31  H   UNL     1       7.234   0.368  -6.038  1.00  0.00     0.210 HD
ENDBRANCH  25  30
ENDBRANCH  24  25
BRANCH  24  32
HETATM   32  O   UNL     1       7.193  -1.077  -4.257  1.00  0.00    -0.390 OA
HETATM   33  H   UNL     1       7.557  -0.559  -3.508  1.00  0.00     0.210 HD
ENDBRANCH  24  32
ENDBRANCH   1  24
TORSDOF 17
