REMARK  4 active torsions:
REMARK  status: ('A' for Active; 'I' for Inactive)
REMARK    1  A    between atoms: C_2  and  C_3 
REMARK    2  A    between atoms: C_2  and  C_5 
REMARK    3  A    between atoms: C_3  and  O_4 
REMARK    4  A    between atoms: C_5  and  O_6 
ROOT
HETATM    1  C   UNL     1       1.021   0.049   0.064  1.00  0.00     0.014 C 
HETATM    2  C   UNL     1       2.550   0.032   0.114  1.00  0.00     0.029 C 
ENDROOT
BRANCH   2   3
HETATM    3  C   UNL     1       3.062   0.323   1.530  1.00  0.00     0.170 C 
BRANCH   3   4
HETATM    4  O   UNL     1       2.616   1.602   1.969  1.00  0.00    -0.400 OA
HETATM    5  H   UNL     1       3.016   2.268   1.384  1.00  0.00     0.209 HD
ENDBRANCH   3   4
ENDBRANCH   2   3
BRANCH   2   6
HETATM    6  C   UNL     1       3.077  -1.312  -0.394  1.00  0.00     0.170 C 
BRANCH   6   7
HETATM    7  O   UNL     1       4.499  -1.329  -0.397  1.00  0.00    -0.400 OA
HETATM    8  H   UNL     1       4.802  -0.675  -1.048  1.00  0.00     0.209 HD
ENDBRANCH   6   7
ENDBRANCH   2   6
TORSDOF 4
