REMARK  0 active torsions:
REMARK  status: ('A' for Active; 'I' for Inactive)
ROOT
HETATM    1  C   UNL     1       0.840   0.073   0.075  1.00  0.00     0.168 C 
HETATM    2  N   UNL     1       2.279  -0.002   0.075  1.00  0.00    -0.289 N 
HETATM    3  C   UNL     1       3.117   1.093   0.073  1.00  0.00     0.253 A 
HETATM    4  O   UNL     1       2.811   2.275   0.075  1.00  0.00    -0.268 OA
HETATM    5  C   UNL     1       4.524   0.638   0.068  1.00  0.00     0.083 A 
HETATM    6  C   UNL     1       4.604  -0.696   0.066  1.00  0.00     0.073 A 
HETATM    7  S   UNL     1       3.075  -1.502   0.070  1.00  0.00    -0.022 SA
ENDROOT
TORSDOF 0
