REMARK  17 active torsions:
REMARK  status: ('A' for Active; 'I' for Inactive)
REMARK    1  A    between atoms: C_2  and  C_3 
REMARK    2  A    between atoms: C_3  and  C_4 
REMARK    3  A    between atoms: C_4  and  C_5 
REMARK    4  A    between atoms: C_5  and  C_6 
REMARK    5  A    between atoms: C_6  and  C_7 
REMARK    6  A    between atoms: C_7  and  C_8 
REMARK    7  A    between atoms: C_7  and  O_22 
REMARK    8  A    between atoms: C_8  and  C_9 
REMARK    9  A    between atoms: C_10  and  C_11 
REMARK   10  A    between atoms: C_11  and  C_12 
REMARK   11  A    between atoms: C_12  and  C_13 
REMARK   12  A    between atoms: C_13  and  C_14 
REMARK   13  A    between atoms: C_14  and  C_15 
REMARK   14  A    between atoms: C_15  and  C_16 
REMARK   15  A    between atoms: C_16  and  C_17 
REMARK   16  A    between atoms: C_17  and  C_18 
REMARK   17  A    between atoms: C_18  and  O_20 
ROOT
HETATM    1  C   UNL     1       5.241  -5.610   0.011  1.00  0.00    -0.028 C 
HETATM    2  C   UNL     1       4.501  -6.013  -1.034  1.00  0.00    -0.031 C 
ENDROOT
BRANCH   2   3
HETATM    3  C   UNL     1       3.000  -6.063  -1.011  1.00  0.00     0.027 C 
BRANCH   3   4
HETATM    4  C   UNL     1       2.462  -7.471  -1.248  1.00  0.00     0.004 C 
BRANCH   4   5
HETATM    5  C   UNL     1       0.932  -7.475  -1.221  1.00  0.00     0.000 C 
BRANCH   5   6
HETATM    6  C   UNL     1       0.395  -8.882  -1.460  1.00  0.00     0.000 C 
BRANCH   6   7
HETATM    7  C   UNL     1      -1.132  -8.921  -1.441  1.00  0.00     0.000 C 
BRANCH   7   8
HETATM    8  C   UNL     1      -1.616 -10.349  -1.684  1.00  0.00     0.010 C 
BRANCH   8   9
HETATM    9  C   UNL     1      -3.137 -10.455  -1.677  1.00  0.00     0.111 C 
BRANCH   9  10
HETATM   10  C   UNL     1      -3.570 -11.883  -1.921  1.00  0.00     0.258 C 
HETATM   11  O   UNL     1      -2.819 -12.829  -2.104  1.00  0.00    -0.265 OA
BRANCH  10  12
HETATM   12  O   UNL     1      -4.931 -11.959  -1.907  1.00  0.00    -0.326 OA
HETATM   13  C   UNL     1      -5.425 -13.280  -2.128  1.00  0.00     0.213 C 
ENDBRANCH  10  12
ENDBRANCH   9  10
ENDBRANCH   8   9
ENDBRANCH   7   8
ENDBRANCH   6   7
ENDBRANCH   5   6
ENDBRANCH   4   5
ENDBRANCH   3   4
ENDBRANCH   2   3
BRANCH   1  14
HETATM   14  C   UNL     1       6.728  -5.372  -0.045  1.00  0.00     0.058 C 
BRANCH  14  15
HETATM   15  C   UNL     1       7.577  -6.237   0.903  1.00  0.00     0.121 C 
BRANCH  15  16
HETATM   16  C   UNL     1       7.538  -7.746   0.632  1.00  0.00     0.032 C 
BRANCH  16  17
HETATM   17  C   UNL     1       7.956  -8.171  -0.775  1.00  0.00     0.002 C 
BRANCH  17  18
HETATM   18  C   UNL     1       9.388  -7.778  -1.152  1.00  0.00     0.000 C 
BRANCH  18  19
HETATM   19  C   UNL     1       9.696  -8.239  -2.578  1.00  0.00    -0.000 C 
BRANCH  19  20
HETATM   20  C   UNL     1      11.113  -7.874  -3.010  1.00  0.00    -0.005 C 
HETATM   21  C   UNL     1      11.379  -8.342  -4.433  1.00  0.00     0.005 C 
ENDBRANCH  19  20
ENDBRANCH  18  19
ENDBRANCH  17  18
ENDBRANCH  16  17
ENDBRANCH  15  16
BRANCH  15  22
HETATM   22  O   UNL     1       7.190  -6.000   2.260  1.00  0.00    -0.395 OA
HETATM   23  H   UNL     1       6.289  -6.351   2.370  1.00  0.00     0.210 HD
ENDBRANCH  15  22
ENDBRANCH  14  15
ENDBRANCH   1  14
TORSDOF 17
