REMARK  13 active torsions:
REMARK  status: ('A' for Active; 'I' for Inactive)
REMARK    1  A    between atoms: C_2  and  C_3 
REMARK    2  A    between atoms: C_3  and  C_4 
REMARK    3  A    between atoms: C_4  and  C_5 
REMARK    4  A    between atoms: C_5  and  C_6 
REMARK    5  A    between atoms: C_6  and  C_7 
REMARK    6  A    between atoms: C_7  and  C_8 
REMARK    7  A    between atoms: C_8  and  C_9 
REMARK    8  A    between atoms: C_9  and  C_10 
REMARK    9  A    between atoms: C_10  and  C_11 
REMARK   10  A    between atoms: C_11  and  C_12 
REMARK   11  A    between atoms: C_12  and  C_13 
REMARK   12  A    between atoms: C_13  and  C_14 
REMARK   13  A    between atoms: C_14  and  N_15 
ROOT
HETATM    1  C   UNL     1       9.120  -3.006  -4.947  1.00  0.00     0.000 C 
ENDROOT
BRANCH   1   2
HETATM    2  C   UNL     1       8.585  -2.265  -3.733  1.00  0.00     0.000 C 
BRANCH   2   3
HETATM    3  C   UNL     1       7.063  -2.268  -3.732  1.00  0.00     0.000 C 
BRANCH   3   4
HETATM    4  C   UNL     1       6.541  -1.524  -2.512  1.00  0.00     0.000 C 
BRANCH   4   5
HETATM    5  C   UNL     1       5.019  -1.520  -2.497  1.00  0.00     0.000 C 
BRANCH   5   6
HETATM    6  C   UNL     1       4.497  -0.773  -1.274  1.00  0.00     0.000 C 
BRANCH   6   7
HETATM    7  C   UNL     1       2.972  -0.770  -1.258  1.00  0.00    -0.000 C 
BRANCH   7   8
HETATM    8  C   UNL     1       2.437  -0.028  -0.039  1.00  0.00    -0.005 C 
HETATM    9  C   UNL     1       0.917  -0.030  -0.025  1.00  0.00     0.005 C 
ENDBRANCH   7   8
ENDBRANCH   6   7
ENDBRANCH   5   6
ENDBRANCH   4   5
ENDBRANCH   3   4
ENDBRANCH   2   3
ENDBRANCH   1   2
BRANCH   1  10
HETATM   10  C   UNL     1      10.642  -2.999  -4.939  1.00  0.00     0.000 C 
BRANCH  10  11
HETATM   11  C   UNL     1      11.171  -3.740  -6.154  1.00  0.00     0.000 C 
BRANCH  11  12
HETATM   12  C   UNL     1      12.696  -3.751  -6.173  1.00  0.00     0.002 C 
BRANCH  12  13
HETATM   13  C   UNL     1      13.172  -4.505  -7.405  1.00  0.00     0.036 C 
BRANCH  13  14
HETATM   14  C   UNL     1      14.691  -4.555  -7.483  1.00  0.00     0.311 C 
BRANCH  14  15
HETATM   15  N   UNL     1      15.242  -5.291  -8.692  1.00  0.00     0.005 N 
HETATM   16  C   UNL     1      14.788  -6.723  -8.708  1.00  0.00     0.355 C 
HETATM   17  C   UNL     1      14.835  -4.613  -9.971  1.00  0.00     0.355 C 
HETATM   18  O   UNL     1      16.619  -5.274  -8.613  1.00  0.00    -0.065 OA
ENDBRANCH  14  15
ENDBRANCH  13  14
ENDBRANCH  12  13
ENDBRANCH  11  12
ENDBRANCH  10  11
ENDBRANCH   1  10
TORSDOF 13
