REMARK  15 active torsions:
REMARK  status: ('A' for Active; 'I' for Inactive)
REMARK    1  A    between atoms: C_2  and  C_3 
REMARK    2  A    between atoms: C_3  and  C_4 
REMARK    3  A    between atoms: C_4  and  C_5 
REMARK    4  A    between atoms: C_5  and  C_6 
REMARK    5  A    between atoms: C_6  and  C_7 
REMARK    6  A    between atoms: C_7  and  C_8 
REMARK    7  A    between atoms: C_8  and  C_9 
REMARK    8  A    between atoms: C_9  and  C_10 
REMARK    9  A    between atoms: C_10  and  C_11 
REMARK   10  A    between atoms: C_11  and  C_12 
REMARK   11  A    between atoms: C_12  and  C_13 
REMARK   12  A    between atoms: C_13  and  C_14 
REMARK   13  A    between atoms: C_14  and  N_15 
REMARK   14  A    between atoms: N_15  and  C_18 
REMARK   15  A    between atoms: C_18  and  C_19 
ROOT
HETATM    1  C   UNL     1      11.052  -4.173   5.836  1.00  0.00     0.000 C 
ENDROOT
BRANCH   1   2
HETATM    2  C   UNL     1      10.469  -3.361   4.680  1.00  0.00     0.000 C 
BRANCH   2   3
HETATM    3  C   UNL     1       8.951  -3.358   4.679  1.00  0.00     0.000 C 
BRANCH   3   4
HETATM    4  C   UNL     1       8.456  -2.506   3.517  1.00  0.00     0.000 C 
BRANCH   4   5
HETATM    5  C   UNL     1       6.940  -2.464   3.496  1.00  0.00     0.000 C 
BRANCH   5   6
HETATM    6  C   UNL     1       6.444  -1.633   2.321  1.00  0.00     0.000 C 
BRANCH   6   7
HETATM    7  C   UNL     1       4.923  -1.609   2.305  1.00  0.00     0.000 C 
BRANCH   7   8
HETATM    8  C   UNL     1       4.408  -0.789   1.130  1.00  0.00     0.000 C 
BRANCH   8   9
HETATM    9  C   UNL     1       2.883  -0.781   1.119  1.00  0.00    -0.000 C 
BRANCH   9  10
HETATM   10  C   UNL     1       2.350   0.032  -0.056  1.00  0.00    -0.005 C 
HETATM   11  C   UNL     1       0.831   0.040  -0.063  1.00  0.00     0.005 C 
ENDBRANCH   9  10
ENDBRANCH   8   9
ENDBRANCH   7   8
ENDBRANCH   6   7
ENDBRANCH   5   6
ENDBRANCH   4   5
ENDBRANCH   3   4
ENDBRANCH   2   3
ENDBRANCH   1   2
BRANCH   1  12
HETATM   12  C   UNL     1      12.586  -4.140   5.842  1.00  0.00     0.002 C 
BRANCH  12  13
HETATM   13  C   UNL     1      13.090  -2.703   5.961  1.00  0.00     0.028 C 
BRANCH  13  14
HETATM   14  C   UNL     1      14.608  -2.573   5.982  1.00  0.00     0.237 C 
BRANCH  14  15
HETATM   15  N   UNL     1      15.020  -1.083   6.053  1.00  0.00    -0.065 N 
HETATM   16  C   UNL     1      14.500  -0.255   4.906  1.00  0.00     0.272 C 
HETATM   17  C   UNL     1      14.618  -0.478   7.394  1.00  0.00     0.272 C 
BRANCH  15  18
HETATM   18  C   UNL     1      16.611  -1.052   5.990  1.00  0.00     0.349 C 
BRANCH  18  19
HETATM   19  C   UNL     1      17.367  -1.807   7.113  1.00  0.00     0.199 C 
HETATM   20  O   UNL     1      17.597  -3.022   6.854  1.00  0.00    -0.647 OA
HETATM   21  O   UNL     1      17.512  -1.148   8.179  1.00  0.00    -0.647 OA
ENDBRANCH  18  19
ENDBRANCH  15  18
ENDBRANCH  14  15
ENDBRANCH  13  14
ENDBRANCH  12  13
ENDBRANCH   1  12
TORSDOF 15
