REMARK  16 active torsions:
REMARK  status: ('A' for Active; 'I' for Inactive)
REMARK    1  A    between atoms: C_2  and  C_3 
REMARK    2  A    between atoms: C_3  and  C_4 
REMARK    3  A    between atoms: C_4  and  C_5 
REMARK    4  A    between atoms: C_5  and  C_6 
REMARK    5  A    between atoms: C_5  and  C_8 
REMARK    6  A    between atoms: C_8  and  O_10 
REMARK    7  A    between atoms: O_10  and  C_11 
REMARK    8  A    between atoms: C_11  and  C_12 
REMARK    9  A    between atoms: C_12  and  C_15 
REMARK   10  A    between atoms: C_15  and  O_16 
REMARK   11  A    between atoms: O_16  and  C_17 
REMARK   12  A    between atoms: C_17  and  C_19 
REMARK   13  A    between atoms: C_19  and  C_20 
REMARK   14  A    between atoms: C_19  and  C_22 
REMARK   15  A    between atoms: C_22  and  C_23 
REMARK   16  A    between atoms: C_23  and  C_24 
ROOT
HETATM    1  C   UNL     1       9.060   5.501   0.705  1.00  0.00    -0.004 C 
HETATM    2  C   UNL     1       8.536   6.419  -0.414  1.00  0.00     0.019 C 
HETATM    3  C   UNL     1       8.564   6.045   2.060  1.00  0.00     0.019 C 
ENDROOT
BRANCH   1   4
HETATM    4  C   UNL     1       8.541   4.058   0.499  1.00  0.00     0.189 C 
BRANCH   4   5
HETATM    5  O   UNL     1       7.097   4.026   0.477  1.00  0.00    -0.320 OA
BRANCH   5   6
HETATM    6  C   UNL     1       6.522   3.519  -0.648  1.00  0.00     0.263 C 
HETATM    7  O   UNL     1       7.137   3.072  -1.609  1.00  0.00    -0.265 OA
BRANCH   6   8
HETATM    8  C   UNL     1       5.003   3.573  -0.559  1.00  0.00     0.085 C 
BRANCH   8   9
HETATM    9  C   UNL     1       4.424   3.805  -1.973  1.00  0.00     0.014 C 
BRANCH   9  10
HETATM   10  C   UNL     1       2.897   3.899  -2.014  1.00  0.00     0.000 C 
BRANCH  10  11
HETATM   11  C   UNL     1       2.378   4.150  -3.432  1.00  0.00    -0.005 C 
HETATM   12  C   UNL     1       0.860   4.246  -3.444  1.00  0.00     0.005 C 
ENDBRANCH  10  11
ENDBRANCH   9  10
ENDBRANCH   8   9
BRANCH   8  13
HETATM   13  C   UNL     1       4.460   2.332   0.170  1.00  0.00     0.010 C 
HETATM   14  C   UNL     1       4.786   0.999  -0.495  1.00  0.00     0.006 C 
ENDBRANCH   8  13
ENDBRANCH   6   8
ENDBRANCH   5   6
ENDBRANCH   4   5
ENDBRANCH   1   4
BRANCH   1  15
HETATM   15  C   UNL     1      10.608   5.503   0.705  1.00  0.00     0.189 C 
BRANCH  15  16
HETATM   16  O   UNL     1      11.140   5.033  -0.552  1.00  0.00    -0.320 OA
BRANCH  16  17
HETATM   17  C   UNL     1      11.912   5.912  -1.256  1.00  0.00     0.263 C 
HETATM   18  O   UNL     1      12.135   7.067  -0.924  1.00  0.00    -0.265 OA
BRANCH  17  19
HETATM   19  C   UNL     1      12.448   5.268  -2.528  1.00  0.00     0.085 C 
BRANCH  19  20
HETATM   20  C   UNL     1      11.445   5.460  -3.679  1.00  0.00     0.010 C 
HETATM   21  C   UNL     1      11.212   6.910  -4.092  1.00  0.00     0.006 C 
ENDBRANCH  19  20
BRANCH  19  22
HETATM   22  C   UNL     1      13.846   5.811  -2.883  1.00  0.00     0.014 C 
BRANCH  22  23
HETATM   23  C   UNL     1      14.903   5.498  -1.817  1.00  0.00     0.000 C 
BRANCH  23  24
HETATM   24  C   UNL     1      16.263   6.085  -2.197  1.00  0.00    -0.005 C 
HETATM   25  C   UNL     1      17.300   5.820  -1.118  1.00  0.00     0.005 C 
ENDBRANCH  23  24
ENDBRANCH  22  23
ENDBRANCH  19  22
ENDBRANCH  17  19
ENDBRANCH  16  17
ENDBRANCH  15  16
ENDBRANCH   1  15
TORSDOF 16
