REMARK  1 active torsions:
REMARK  status: ('A' for Active; 'I' for Inactive)
REMARK    1  A    between atoms: C_3  and  C_8 
REMARK       I    between atoms: C_8  and  N_10 
ROOT
HETATM    1  C   UNL     1       0.685   1.228  -0.000  1.00  0.00     0.018 A 
HETATM    2  C   UNL     1       1.460   0.068  -0.004  1.00  0.00     0.020 A 
HETATM    3  C   UNL     1       0.832  -1.180  -0.005  1.00  0.00     0.047 A 
HETATM    4  C   UNL     1      -0.560  -1.198   0.002  1.00  0.00     0.104 A 
HETATM    5  N   UNL     1      -1.337  -0.084   0.006  1.00  0.00    -0.374 N 
ATOM      6  HN  UNL     1      -2.355  -0.142   0.010  1.00  0.00     0.164 HD
HETATM    7  C   UNL     1      -0.695   1.103   0.004  1.00  0.00     0.087 A 
ENDROOT
BRANCH   3   8
HETATM    8  C   UNL     1       1.549  -2.478  -0.014  1.00  0.00     0.250 C 
HETATM    9  O   UNL     1       0.942  -3.542  -0.013  1.00  0.00    -0.268 OA
HETATM   10  N   UNL     1       2.916  -2.471  -0.025  1.00  0.00    -0.366 N 
HETATM   11  H   UNL     1       3.499  -1.650  -0.032  1.00  0.00     0.159 HD
HETATM   12  H   UNL     1       3.375  -3.374  -0.037  1.00  0.00     0.159 HD
ENDBRANCH   3   8
TORSDOF 1
