REMARK WARNING: 32 MAX_TORS EXCEEDED!!!
REMARK  35 active torsions:
REMARK  status: ('A' for Active; 'I' for Inactive)
REMARK    1  A    between atoms: C_2  and  C_4 
REMARK    2  A    between atoms: C_4  and  C_5 
REMARK    3  A    between atoms: C_4  and  N_8 
REMARK       I    between atoms: C_5  and  N_7 
REMARK       I    between atoms: N_8  and  C_9 
REMARK    4  A    between atoms: C_9  and  C_11 
REMARK       I    between atoms: N_15  and  C_16 
REMARK    5  A    between atoms: C_16  and  C_18 
REMARK    6  A    between atoms: C_18  and  C_19 
REMARK    7  A    between atoms: C_18  and  N_24 
REMARK    8  A    between atoms: C_19  and  C_20 
REMARK    9  A    between atoms: C_20  and  C_21 
REMARK   10  A    between atoms: C_21  and  C_22 
REMARK   11  A    between atoms: C_22  and  N_23 
REMARK       I    between atoms: N_24  and  C_25 
REMARK   12  A    between atoms: C_25  and  C_27 
REMARK   13  A    between atoms: C_27  and  C_28 
REMARK   14  A    between atoms: C_27  and  N_35 
REMARK   15  A    between atoms: C_28  and  C_29 
REMARK       I    between atoms: N_35  and  C_36 
REMARK   16  A    between atoms: C_36  and  C_38 
REMARK   17  A    between atoms: C_38  and  C_39 
REMARK   18  A    between atoms: C_38  and  N_49 
REMARK   19  A    between atoms: C_39  and  C_40 
REMARK       I    between atoms: N_49  and  C_50 
REMARK   20  A    between atoms: C_50  and  C_52 
REMARK   21  A    between atoms: C_52  and  C_53 
REMARK   22  A    between atoms: C_52  and  N_61 
REMARK   23  A    between atoms: C_53  and  C_54 
REMARK   24  A    between atoms: C_54  and  C_55 
REMARK   25  A    between atoms: C_55  and  N_56 
REMARK       I    between atoms: C_58  and  N_59 
REMARK       I    between atoms: C_58  and  N_60 
REMARK       I    between atoms: N_61  and  C_62 
REMARK   26  A    between atoms: C_62  and  C_64 
REMARK   27  A    between atoms: C_64  and  C_65 
REMARK   28  A    between atoms: C_64  and  N_72 
REMARK   29  A    between atoms: C_65  and  C_66 
REMARK       I    between atoms: N_72  and  C_73 
REMARK   30  A    between atoms: C_73  and  C_75 
REMARK       I    between atoms: N_79  and  C_80 
REMARK   31  A    between atoms: C_80  and  C_82 
REMARK   32  A    between atoms: C_82  and  C_83 
REMARK   33  A    between atoms: C_82  and  N_87 
REMARK   34  A    between atoms: C_83  and  C_84 
REMARK   35  A    between atoms: C_84  and  S_85 
ROOT
HETATM    1  C   UNL     1      -0.621   5.471  -1.209  1.00  0.00     0.181 C 
ENDROOT
BRANCH   1   2
HETATM    2  C   UNL     1       0.884   5.313  -0.738  1.00  0.00     0.241 C 
HETATM    3  N   UNL     1       1.311   4.093  -0.246  1.00  0.00    -0.346 N 
HETATM    4  H   UNL     1       0.639   3.347  -0.114  1.00  0.00     0.163 HD
HETATM    5  O   UNL     1       1.658   6.275  -0.795  1.00  0.00    -0.271 OA
BRANCH   3   6
HETATM    6  C   UNL     1       2.667   3.846   0.318  1.00  0.00     0.180 C 
BRANCH   6   7
HETATM    7  C   UNL     1       2.673   2.916   1.613  1.00  0.00     0.241 C 
HETATM    8  N   UNL     1       3.768   3.064   2.473  1.00  0.00    -0.346 N 
HETATM    9  H   UNL     1       4.534   3.647   2.164  1.00  0.00     0.163 HD
HETATM   10  O   UNL     1       1.708   2.188   1.849  1.00  0.00    -0.271 OA
BRANCH   8  11
HETATM   11  C   UNL     1       3.883   2.518   3.860  1.00  0.00     0.176 C 
BRANCH  11  12
HETATM   12  C   UNL     1       4.695   1.225   3.877  1.00  0.00     0.243 C 
HETATM   13  N   UNL     1       4.662   0.358   4.949  1.00  0.00    -0.337 N 
HETATM   14  C   UNL     1       5.866  -0.451   5.330  1.00  0.00     0.179 C 
HETATM   15  C   UNL     1       3.691   0.337   6.029  1.00  0.00     0.127 C 
HETATM   16  C   UNL     1       5.263  -1.471   6.281  1.00  0.00     0.037 C 
HETATM   17  C   UNL     1       4.203  -0.691   7.047  1.00  0.00     0.022 C 
HETATM   18  O   UNL     1       5.566   1.122   2.994  1.00  0.00    -0.271 OA
BRANCH  14  19
HETATM   19  C   UNL     1       6.669  -1.090   4.197  1.00  0.00     0.241 C 
HETATM   20  N   UNL     1       7.696  -0.298   3.676  1.00  0.00    -0.346 N 
HETATM   21  H   UNL     1       7.557   0.702   3.779  1.00  0.00     0.163 HD
HETATM   22  O   UNL     1       6.406  -2.225   3.786  1.00  0.00    -0.271 OA
BRANCH  20  23
HETATM   23  C   UNL     1       8.403  -0.725   2.467  1.00  0.00     0.179 C 
BRANCH  23  24
HETATM   24  C   UNL     1       8.969   0.382   1.544  1.00  0.00     0.009 C 
HETATM   25  C   UNL     1       7.874   1.343   1.068  1.00  0.00     0.012 C 
HETATM   26  C   UNL     1      10.145   1.223   2.044  1.00  0.00     0.012 C 
ENDBRANCH  23  24
BRANCH  23  27
HETATM   27  C   UNL     1       9.459  -1.791   2.888  1.00  0.00     0.238 C 
HETATM   28  O   UNL     1      10.675  -1.666   2.803  1.00  0.00    -0.271 OA
HETATM   29  N   UNL     1       8.931  -2.948   3.385  1.00  0.00    -0.368 N 
HETATM   30  H   UNL     1       7.920  -3.074   3.453  1.00  0.00     0.159 HD
HETATM   31  H   UNL     1       9.542  -3.697   3.672  1.00  0.00     0.159 HD
ENDBRANCH  23  27
ENDBRANCH  20  23
ENDBRANCH  14  19
ENDBRANCH  11  12
BRANCH  11  32
HETATM   32  C   UNL     1       4.689   3.517   4.778  1.00  0.00     0.035 C 
BRANCH  32  33
HETATM   33  C   UNL     1       6.237   3.494   4.574  1.00  0.00     0.004 C 
BRANCH  33  34
HETATM   34  C   UNL     1       7.049   4.525   5.373  1.00  0.00     0.030 C 
BRANCH  34  35
HETATM   35  C   UNL     1       8.576   4.382   5.180  1.00  0.00     0.267 C 
BRANCH  35  36
HETATM   36  N   UNL     1       9.072   3.023   5.427  1.00  0.00     0.078 N 
HETATM   37  H   UNL     1       8.785   2.725   6.359  1.00  0.00     0.312 HD
HETATM   38  H   UNL     1      10.095   3.055   5.465  1.00  0.00     0.312 HD
ENDBRANCH  35  36
ENDBRANCH  34  35
ENDBRANCH  33  34
ENDBRANCH  32  33
ENDBRANCH  11  32
ENDBRANCH   8  11
ENDBRANCH   6   7
BRANCH   6  39
HETATM   39  C   UNL     1       3.667   3.424  -0.784  1.00  0.00     0.073 C 
BRANCH  39  40
HETATM   40  C   UNL     1       3.340   2.288  -1.742  1.00  0.00    -0.056 A 
HETATM   41  C   UNL     1       2.264   1.408  -1.581  1.00  0.00     0.007 A 
HETATM   42  C   UNL     1       1.965   0.453  -2.560  1.00  0.00     0.001 A 
HETATM   43  C   UNL     1       2.741   0.355  -3.711  1.00  0.00     0.000 A 
HETATM   44  C   UNL     1       3.846   1.185  -3.866  1.00  0.00     0.001 A 
HETATM   45  C   UNL     1       4.151   2.131  -2.884  1.00  0.00     0.007 A 
ENDBRANCH  39  40
ENDBRANCH   6  39
ENDBRANCH   3   6
ENDBRANCH   1   2
BRANCH   1  46
HETATM   46  C   UNL     1      -1.582   4.391  -0.692  1.00  0.00     0.075 C 
BRANCH  46  47
HETATM   47  C   UNL     1      -1.787   4.425   0.794  1.00  0.00    -0.028 C 
HETATM   48  C   UNL     1      -1.012   5.100   1.726  1.00  0.00     0.096 C 
HETATM   49  N   UNL     1      -1.597   4.886   2.941  1.00  0.00    -0.365 N 
HETATM   50  C   UNL     1      -2.215   3.664   2.846  1.00  0.00     0.042 C 
HETATM   51  H   UNL     1      -2.018   5.652   3.446  1.00  0.00     0.165 HD
HETATM   52  C   UNL     1      -2.354   2.624   3.754  1.00  0.00     0.030 C 
HETATM   53  C   UNL     1      -2.687   3.603   1.541  1.00  0.00    -0.002 C 
HETATM   54  C   UNL     1      -3.156   1.560   3.342  1.00  0.00     0.002 C 
HETATM   55  C   UNL     1      -3.886   1.625   2.151  1.00  0.00     0.001 C 
HETATM   56  C   UNL     1      -3.675   2.657   1.229  1.00  0.00     0.014 C 
ENDBRANCH  46  47
ENDBRANCH   1  46
BRANCH   1  57
HETATM   57  N   UNL     1      -1.025   6.839  -0.824  1.00  0.00    -0.346 N 
HETATM   58  C   UNL     1      -2.319   7.283  -0.690  1.00  0.00     0.241 C 
HETATM   59  O   UNL     1      -3.317   6.595  -0.918  1.00  0.00    -0.271 OA
HETATM   60  H   UNL     1      -0.308   7.538  -0.991  1.00  0.00     0.163 HD
BRANCH  58  61
HETATM   61  C   UNL     1      -2.506   8.748  -0.226  1.00  0.00     0.176 C 
BRANCH  61  62
HETATM   62  C   UNL     1      -1.214   9.555   0.018  1.00  0.00     0.036 C 
BRANCH  62  63
HETATM   63  C   UNL     1      -1.443  10.975   0.528  1.00  0.00     0.022 C 
BRANCH  63  64
HETATM   64  C   UNL     1      -2.049  10.985   1.924  1.00  0.00     0.121 C 
BRANCH  64  65
HETATM   65  N   UNL     1      -2.157  12.365   2.365  1.00  0.00    -0.372 N 
HETATM   66  C   UNL     1      -2.638  12.565   3.529  1.00  0.00     0.121 C 
HETATM   67  N   UNL     1      -3.123  11.694   4.437  1.00  0.00    -0.279 NA
HETATM   68  N   UNL     1      -2.736  13.832   4.004  1.00  0.00    -0.279 NA
HETATM   69  H   UNL     1      -2.916  10.727   4.232  1.00  0.00     0.126 HD
HETATM   70  H   UNL     1      -2.856  11.931   5.385  1.00  0.00     0.126 HD
HETATM   71  H   UNL     1      -2.616  14.493   3.241  1.00  0.00     0.126 HD
HETATM   72  H   UNL     1      -3.597  14.007   4.507  1.00  0.00     0.126 HD
ATOM     73  HN  UNL     1      -1.861  13.139   1.770  1.00  0.00     0.161 HD
ENDBRANCH  64  65
ENDBRANCH  63  64
ENDBRANCH  62  63
ENDBRANCH  61  62
BRANCH  61  74
HETATM   74  N   UNL     1      -3.442   9.327  -1.196  1.00  0.00    -0.346 N 
HETATM   75  C   UNL     1      -2.990   9.453  -2.491  1.00  0.00     0.241 C 
HETATM   76  O   UNL     1      -1.793   9.270  -2.717  1.00  0.00    -0.271 OA
HETATM   77  H   UNL     1      -4.429   9.191  -1.022  1.00  0.00     0.163 HD
BRANCH  75  78
HETATM   78  C   UNL     1      -3.973   9.749  -3.647  1.00  0.00     0.180 C 
BRANCH  78  79
HETATM   79  C   UNL     1      -5.392  10.237  -3.263  1.00  0.00     0.073 C 
BRANCH  79  80
HETATM   80  C   UNL     1      -5.609  11.538  -2.514  1.00  0.00    -0.056 A 
HETATM   81  C   UNL     1      -4.574  12.281  -1.939  1.00  0.00     0.007 A 
HETATM   82  C   UNL     1      -4.827  13.503  -1.313  1.00  0.00     0.001 A 
HETATM   83  C   UNL     1      -6.123  14.006  -1.250  1.00  0.00     0.000 A 
HETATM   84  C   UNL     1      -7.177  13.262  -1.770  1.00  0.00     0.001 A 
HETATM   85  C   UNL     1      -6.924  12.031  -2.385  1.00  0.00     0.007 A 
ENDBRANCH  79  80
ENDBRANCH  78  79
BRANCH  78  86
HETATM   86  N   UNL     1      -3.280  10.612  -4.634  1.00  0.00    -0.346 N 
HETATM   87  C   UNL     1      -2.186  10.100  -5.346  1.00  0.00     0.241 C 
HETATM   88  O   UNL     1      -1.925   8.897  -5.378  1.00  0.00    -0.271 OA
HETATM   89  H   UNL     1      -3.317  11.612  -4.486  1.00  0.00     0.163 HD
BRANCH  87  90
HETATM   90  C   UNL     1      -1.392  11.132  -6.195  1.00  0.00     0.179 C 
HETATM   91  C   UNL     1      -1.576  10.684  -7.659  1.00  0.00     0.037 C 
HETATM   92  C   UNL     1      -0.416  11.306  -8.416  1.00  0.00     0.022 C 
HETATM   93  C   UNL     1       0.695  11.390  -7.386  1.00  0.00     0.127 C 
HETATM   94  N   UNL     1       0.075  11.129  -6.091  1.00  0.00    -0.337 N 
HETATM   95  C   UNL     1       0.777  11.225  -4.890  1.00  0.00     0.253 C 
HETATM   96  O   UNL     1       0.222  11.490  -3.825  1.00  0.00    -0.271 OA
BRANCH  95  97
HETATM   97  C   UNL     1       2.323  10.954  -5.000  1.00  0.00     0.309 C 
BRANCH  97  98
HETATM   98  C   UNL     1       3.114  11.017  -3.675  1.00  0.00     0.055 C 
BRANCH  98  99
HETATM   99  C   UNL     1       4.658  11.131  -3.824  1.00  0.00     0.076 C 
BRANCH  99 100
HETATM  100  S   UNL     1       5.417   9.859  -4.914  1.00  0.00    -0.173 SA
HETATM  101  C   UNL     1       7.107  10.469  -5.105  1.00  0.00     0.089 C 
ENDBRANCH  99 100
ENDBRANCH  98  99
ENDBRANCH  97  98
BRANCH  97 102
HETATM  102  N   UNL     1       2.499   9.620  -5.621  1.00  0.00     0.092 N 
HETATM  103  H   UNL     1       2.154   8.918  -4.962  1.00  0.00     0.313 HD
HETATM  104  H   UNL     1       3.504   9.434  -5.694  1.00  0.00     0.313 HD
ENDBRANCH  97 102
ENDBRANCH  95  97
ENDBRANCH  87  90
ENDBRANCH  78  86
ENDBRANCH  75  78
ENDBRANCH  61  74
ENDBRANCH  58  61
ENDBRANCH   1  57
TORSDOF 35
