REMARK  12 active torsions:
REMARK  status: ('A' for Active; 'I' for Inactive)
REMARK    1  A    between atoms: C_2  and  C_3 
REMARK    2  A    between atoms: C_3  and  C_4 
REMARK    3  A    between atoms: C_4  and  C_5 
REMARK    4  A    between atoms: C_5  and  C_6 
REMARK    5  A    between atoms: C_5  and  C_8 
REMARK    6  A    between atoms: C_8  and  O_9 
REMARK    7  A    between atoms: O_9  and  C_10 
REMARK    8  A    between atoms: C_10  and  C_12 
REMARK    9  A    between atoms: C_12  and  C_26 
REMARK   10  A    between atoms: C_13  and  C_14 
REMARK   11  A    between atoms: C_13  and  C_20 
REMARK   12  A    between atoms: C_26  and  N_27 
ROOT
HETATM    1  C   UNL     1       8.866  -5.023   3.007  1.00  0.00     0.113 C 
HETATM    2  C   UNL     1      10.132  -5.272   3.452  1.00  0.00     0.010 C 
ENDROOT
BRANCH   1   3
HETATM    3  C   UNL     1       8.495  -3.755   2.302  1.00  0.00     0.303 C 
HETATM    4  O   UNL     1       9.293  -2.942   1.852  1.00  0.00    -0.258 OA
BRANCH   3   5
HETATM    5  O   UNL     1       7.144  -3.542   2.292  1.00  0.00    -0.317 OA
BRANCH   5   6
HETATM    6  C   UNL     1       6.708  -2.171   2.116  1.00  0.00     0.183 C 
BRANCH   6   7
HETATM    7  C   UNL     1       6.696  -1.643   0.659  1.00  0.00     0.010 C 
BRANCH   7   8
HETATM    8  C   UNL     1       5.794  -2.496  -0.261  1.00  0.00     0.007 C 
BRANCH   8   9
HETATM    9  C   UNL     1       5.708  -2.031  -1.726  1.00  0.00     0.000 C 
BRANCH   9  10
HETATM   10  C   UNL     1       7.046  -2.077  -2.469  1.00  0.00    -0.005 C 
HETATM   11  C   UNL     1       6.902  -1.612  -3.912  1.00  0.00     0.005 C 
ENDBRANCH   9  10
ENDBRANCH   8   9
ENDBRANCH   7   8
BRANCH   7  12
HETATM   12  C   UNL     1       6.341  -0.133   0.621  1.00  0.00     0.002 C 
HETATM   13  C   UNL     1       4.941   0.240   1.099  1.00  0.00     0.005 C 
ENDBRANCH   7  12
ENDBRANCH   6   7
ENDBRANCH   5   6
ENDBRANCH   3   5
ENDBRANCH   1   3
BRANCH   1  14
HETATM   14  C   UNL     1       7.779  -6.032   3.339  1.00  0.00    -0.030 C 
BRANCH  14  15
HETATM   15  N   UNL     1       6.876  -6.868   3.614  1.00  0.00    -0.365 N 
ATOM     16  HN2 UNL     1       7.557  -6.147   3.374  1.00  0.00     0.165 HD
ATOM     17  HN1 UNL     1       6.146  -7.545   3.837  1.00  0.00     0.165 HD
ENDBRANCH  14  15
ENDBRANCH   1  14
BRANCH   2  18
HETATM   18  C   UNL     1      10.442  -6.502   4.248  1.00  0.00    -0.023 A 
HETATM   19  C   UNL     1      10.827  -7.693   3.615  1.00  0.00     0.012 A 
HETATM   20  C   UNL     1      11.291  -8.772   4.378  1.00  0.00     0.001 A 
HETATM   21  C   UNL     1      11.376  -8.669   5.766  1.00  0.00     0.000 A 
HETATM   22  C   UNL     1      10.980  -7.495   6.401  1.00  0.00     0.001 A 
HETATM   23  C   UNL     1      10.511  -6.418   5.647  1.00  0.00     0.012 A 
ENDBRANCH   2  18
BRANCH   2  24
HETATM   24  C   UNL     1      11.266  -4.328   3.266  1.00  0.00    -0.023 A 
HETATM   25  C   UNL     1      11.508  -3.327   4.218  1.00  0.00     0.012 A 
HETATM   26  C   UNL     1      12.663  -2.548   4.141  1.00  0.00     0.001 A 
HETATM   27  C   UNL     1      13.581  -2.760   3.114  1.00  0.00     0.000 A 
HETATM   28  C   UNL     1      13.344  -3.748   2.159  1.00  0.00     0.001 A 
HETATM   29  C   UNL     1      12.192  -4.534   2.235  1.00  0.00     0.012 A 
ENDBRANCH   2  24
TORSDOF 12
