REMARK  31 active torsions:
REMARK  status: ('A' for Active; 'I' for Inactive)
REMARK    1  A    between atoms: C_2  and  C_3 
REMARK    2  A    between atoms: C_3  and  C_4 
REMARK    3  A    between atoms: C_4  and  C_5 
REMARK    4  A    between atoms: C_5  and  C_6 
REMARK    5  A    between atoms: C_6  and  C_7 
REMARK    6  A    between atoms: C_7  and  C_8 
REMARK    7  A    between atoms: C_8  and  C_9 
REMARK    8  A    between atoms: C_9  and  C_10 
REMARK    9  A    between atoms: C_10  and  C_11 
REMARK   10  A    between atoms: C_11  and  C_12 
REMARK   11  A    between atoms: C_12  and  C_13 
REMARK   12  A    between atoms: C_13  and  C_14 
REMARK   13  A    between atoms: C_14  and  O_16 
REMARK   14  A    between atoms: O_16  and  C_17 
REMARK   15  A    between atoms: C_17  and  C_18 
REMARK   16  A    between atoms: C_18  and  C_19 
REMARK   17  A    between atoms: C_18  and  C_27 
REMARK   18  A    between atoms: C_19  and  C_20 
REMARK   19  A    between atoms: C_20  and  C_21 
REMARK   20  A    between atoms: C_21  and  C_22 
REMARK   21  A    between atoms: C_22  and  C_23 
REMARK   22  A    between atoms: C_23  and  C_24 
REMARK   23  A    between atoms: C_24  and  C_25 
REMARK   24  A    between atoms: C_27  and  C_28 
REMARK   25  A    between atoms: C_28  and  C_29 
REMARK   26  A    between atoms: C_29  and  C_30 
REMARK   27  A    between atoms: C_30  and  C_31 
REMARK   28  A    between atoms: C_31  and  C_32 
REMARK   29  A    between atoms: C_32  and  C_33 
REMARK   30  A    between atoms: C_33  and  C_34 
REMARK   31  A    between atoms: C_34  and  C_35 
ROOT
HETATM    1  C   UNL     1      17.294  10.590   3.648  1.00  0.00     0.010 C 
ENDROOT
BRANCH   1   2
HETATM    2  C   UNL     1      16.795   9.246   3.096  1.00  0.00     0.183 C 
BRANCH   2   3
HETATM    3  O   UNL     1      15.364   9.177   3.045  1.00  0.00    -0.321 OA
BRANCH   3   4
HETATM    4  C   UNL     1      14.868   9.009   1.779  1.00  0.00     0.258 C 
HETATM    5  O   UNL     1      15.080   9.739   0.839  1.00  0.00    -0.265 OA
BRANCH   4   6
HETATM    6  C   UNL     1      14.077   7.713   1.715  1.00  0.00     0.111 C 
BRANCH   6   7
HETATM    7  C   UNL     1      12.881   7.788   2.650  1.00  0.00     0.010 C 
BRANCH   7   8
HETATM    8  C   UNL     1      12.038   6.520   2.638  1.00  0.00     0.000 C 
BRANCH   8   9
HETATM    9  C   UNL     1      10.862   6.678   3.598  1.00  0.00     0.000 C 
BRANCH   9  10
HETATM   10  C   UNL     1       9.998   5.427   3.609  1.00  0.00     0.000 C 
BRANCH  10  11
HETATM   11  C   UNL     1       8.829   5.595   4.570  1.00  0.00     0.000 C 
BRANCH  11  12
HETATM   12  C   UNL     1       7.969   4.341   4.576  1.00  0.00     0.000 C 
BRANCH  12  13
HETATM   13  C   UNL     1       6.799   4.503   5.533  1.00  0.00     0.000 C 
BRANCH  13  14
HETATM   14  C   UNL     1       5.942   3.245   5.534  1.00  0.00     0.000 C 
BRANCH  14  15
HETATM   15  C   UNL     1       4.769   3.406   6.490  1.00  0.00     0.000 C 
BRANCH  15  16
HETATM   16  C   UNL     1       3.908   2.150   6.495  1.00  0.00    -0.000 C 
BRANCH  16  17
HETATM   17  C   UNL     1       2.731   2.308   7.452  1.00  0.00    -0.005 C 
HETATM   18  C   UNL     1       1.874   1.057   7.460  1.00  0.00     0.005 C 
ENDBRANCH  16  17
ENDBRANCH  15  16
ENDBRANCH  14  15
ENDBRANCH  13  14
ENDBRANCH  12  13
ENDBRANCH  11  12
ENDBRANCH  10  11
ENDBRANCH   9  10
ENDBRANCH   8   9
ENDBRANCH   7   8
ENDBRANCH   6   7
ENDBRANCH   4   6
ENDBRANCH   3   4
ENDBRANCH   2   3
ENDBRANCH   1   2
BRANCH   1  19
HETATM   19  C   UNL     1      16.763  10.867   5.068  1.00  0.00     0.007 C 
BRANCH  19  20
HETATM   20  C   UNL     1      17.228  12.208   5.614  1.00  0.00     0.000 C 
BRANCH  20  21
HETATM   21  C   UNL     1      16.698  12.454   7.011  1.00  0.00     0.000 C 
BRANCH  21  22
HETATM   22  C   UNL     1      17.221  13.800   7.479  1.00  0.00     0.000 C 
BRANCH  22  23
HETATM   23  C   UNL     1      16.709  14.096   8.872  1.00  0.00     0.000 C 
BRANCH  23  24
HETATM   24  C   UNL     1      17.233  15.442   9.339  1.00  0.00    -0.000 C 
BRANCH  24  25
HETATM   25  C   UNL     1      16.720  15.743  10.739  1.00  0.00    -0.005 C 
HETATM   26  C   UNL     1      17.234  17.086  11.217  1.00  0.00     0.005 C 
ENDBRANCH  24  25
ENDBRANCH  23  24
ENDBRANCH  22  23
ENDBRANCH  21  22
ENDBRANCH  20  21
ENDBRANCH  19  20
ENDBRANCH   1  19
BRANCH   1  27
HETATM   27  C   UNL     1      18.833  10.612   3.646  1.00  0.00     0.007 C 
BRANCH  27  28
HETATM   28  C   UNL     1      19.419  10.443   2.252  1.00  0.00     0.000 C 
BRANCH  28  29
HETATM   29  C   UNL     1      20.935  10.468   2.281  1.00  0.00     0.000 C 
BRANCH  29  30
HETATM   30  C   UNL     1      21.473  10.286   0.869  1.00  0.00     0.000 C 
BRANCH  30  31
HETATM   31  C   UNL     1      22.990  10.311   0.879  1.00  0.00     0.000 C 
BRANCH  31  32
HETATM   32  C   UNL     1      23.530  10.130  -0.530  1.00  0.00     0.000 C 
BRANCH  32  33
HETATM   33  C   UNL     1      25.051  10.159  -0.513  1.00  0.00     0.000 C 
BRANCH  33  34
HETATM   34  C   UNL     1      25.600   9.978  -1.920  1.00  0.00    -0.000 C 
BRANCH  34  35
HETATM   35  C   UNL     1      27.124  10.004  -1.909  1.00  0.00    -0.005 C 
HETATM   36  C   UNL     1      27.672   9.823  -3.312  1.00  0.00     0.005 C 
ENDBRANCH  34  35
ENDBRANCH  33  34
ENDBRANCH  32  33
ENDBRANCH  31  32
ENDBRANCH  30  31
ENDBRANCH  29  30
ENDBRANCH  28  29
ENDBRANCH  27  28
ENDBRANCH   1  27
TORSDOF 31
