REMARK  16 active torsions:
REMARK  status: ('A' for Active; 'I' for Inactive)
REMARK    1  A    between atoms: C_2  and  C_3 
REMARK    2  A    between atoms: C_3  and  C_4 
REMARK    3  A    between atoms: C_4  and  C_5 
REMARK    4  A    between atoms: C_5  and  C_6 
REMARK    5  A    between atoms: C_6  and  C_7 
REMARK    6  A    between atoms: C_7  and  C_8 
REMARK    7  A    between atoms: C_8  and  C_9 
REMARK    8  A    between atoms: C_10  and  C_11 
REMARK    9  A    between atoms: C_11  and  C_12 
REMARK   10  A    between atoms: C_12  and  C_13 
REMARK   11  A    between atoms: C_13  and  C_14 
REMARK   12  A    between atoms: C_14  and  C_15 
REMARK   13  A    between atoms: C_15  and  C_16 
REMARK   14  A    between atoms: C_16  and  C_17 
REMARK   15  A    between atoms: C_17  and  C_18 
REMARK   16  A    between atoms: C_18  and  O_20 
ROOT
HETATM    1  C   UNL     1      10.896  -4.236  -6.168  1.00  0.00     0.027 C 
ENDROOT
BRANCH   1   2
HETATM    2  C   UNL     1      10.380  -3.439  -5.014  1.00  0.00    -0.031 C 
HETATM    3  C   UNL     1       9.074  -3.274  -4.786  1.00  0.00    -0.031 C 
BRANCH   3   4
HETATM    4  C   UNL     1       8.558  -2.484  -3.629  1.00  0.00     0.027 C 
BRANCH   4   5
HETATM    5  C   UNL     1       7.218  -3.031  -3.160  1.00  0.00     0.004 C 
BRANCH   5   6
HETATM    6  C   UNL     1       6.703  -2.213  -1.985  1.00  0.00     0.000 C 
BRANCH   6   7
HETATM    7  C   UNL     1       5.363  -2.756  -1.517  1.00  0.00     0.000 C 
BRANCH   7   8
HETATM    8  C   UNL     1       4.847  -1.939  -0.343  1.00  0.00     0.000 C 
BRANCH   8   9
HETATM    9  C   UNL     1       3.508  -2.484   0.127  1.00  0.00    -0.000 C 
BRANCH   9  10
HETATM   10  C   UNL     1       2.982  -1.670   1.302  1.00  0.00    -0.005 C 
HETATM   11  C   UNL     1       1.646  -2.214   1.768  1.00  0.00     0.005 C 
ENDBRANCH   9  10
ENDBRANCH   8   9
ENDBRANCH   7   8
ENDBRANCH   6   7
ENDBRANCH   5   6
ENDBRANCH   4   5
ENDBRANCH   3   4
ENDBRANCH   1   2
BRANCH   1  12
HETATM   12  C   UNL     1      11.746  -5.399  -5.674  1.00  0.00     0.004 C 
BRANCH  12  13
HETATM   13  C   UNL     1      12.262  -6.207  -6.857  1.00  0.00     0.000 C 
BRANCH  13  14
HETATM   14  C   UNL     1      13.115  -7.371  -6.374  1.00  0.00     0.000 C 
BRANCH  14  15
HETATM   15  C   UNL     1      13.634  -8.184  -7.559  1.00  0.00     0.001 C 
BRANCH  15  16
HETATM   16  C   UNL     1      14.485  -9.344  -7.068  1.00  0.00     0.010 C 
BRANCH  16  17
HETATM   17  C   UNL     1      15.026 -10.184  -8.218  1.00  0.00     0.110 C 
BRANCH  17  18
HETATM   18  C   UNL     1      15.867 -11.328  -7.677  1.00  0.00     0.139 C 
HETATM   19  O   UNL     1      16.066 -11.526  -6.490  1.00  0.00    -0.650 OA
BRANCH  18  20
HETATM   20  O   UNL     1      16.390 -12.125  -8.626  1.00  0.00    -0.776 OA
HETATM   21  H   UNL     1      16.165 -11.872  -9.540  1.00  0.00     0.167 HD
ENDBRANCH  18  20
ENDBRANCH  17  18
ENDBRANCH  16  17
ENDBRANCH  15  16
ENDBRANCH  14  15
ENDBRANCH  13  14
ENDBRANCH  12  13
ENDBRANCH   1  12
TORSDOF 16
