REMARK  7 active torsions:
REMARK  status: ('A' for Active; 'I' for Inactive)
REMARK    1  A    between atoms: C_1  and  C_2 
REMARK    2  A    between atoms: C_1  and  C_8 
REMARK    3  A    between atoms: C_2  and  CA_3 
REMARK    4  A    between atoms: CA_3  and  C_4 
REMARK    5  A    between atoms: CA_3  and  N_7 
REMARK    6  A    between atoms: C_4  and  OXT_6 
REMARK    7  A    between atoms: C_8  and  N_9 
ROOT
HETATM    1  CA  UNL     1      -1.162  -0.162  -1.595  1.00  0.00     0.314 C 
ENDROOT
BRANCH   1   2
HETATM    2  C   UNL     1       0.373  -0.133  -1.750  1.00  0.00     0.048 C 
BRANCH   2   3
HETATM    3  C   UNL     1       1.079   0.076  -0.400  1.00  0.00     0.032 C 
BRANCH   3   4
HETATM    4  C   UNL     1       2.605   0.107  -0.543  1.00  0.00     0.267 C 
BRANCH   4   5
HETATM    5  N   UNL     1       3.108  -1.156  -1.078  1.00  0.00     0.078 N 
HETATM    6  H   UNL     1       2.893  -1.924  -0.401  1.00  0.00     0.312 HD
HETATM    7  H   UNL     1       4.147  -1.089  -1.167  1.00  0.00     0.312 HD
ENDBRANCH   4   5
ENDBRANCH   3   4
ENDBRANCH   2   3
ENDBRANCH   1   2
BRANCH   1   8
HETATM    8  C   UNL     1      -1.824  -0.345  -2.945  1.00  0.00     0.173 C 
HETATM    9  O   UNL     1      -1.593  -1.344  -3.608  1.00  0.00    -0.648 OA
BRANCH   8  10
HETATM   10  OXT UNL     1      -2.682   0.580  -3.426  1.00  0.00    -0.775 OA
HETATM   11  HXT UNL     1      -2.909   1.377  -2.927  1.00  0.00     0.167 HD
ENDBRANCH   8  10
ENDBRANCH   1   8
BRANCH   1  12
HETATM   12  N   UNL     1      -1.566  -1.236  -0.685  1.00  0.00     0.093 N 
HETATM   13  H1  UNL     1      -1.286  -2.167  -1.071  1.00  0.00     0.314 HD
HETATM   14  H2  UNL     1      -2.606  -1.220  -0.566  1.00  0.00     0.314 HD
ENDBRANCH   1  12
TORSDOF 7
