REMARK  7 active torsions:
REMARK  status: ('A' for Active; 'I' for Inactive)
REMARK    1  A    between atoms: C_1  and  C_2 
REMARK    2  A    between atoms: C_1  and  C_8 
REMARK    3  A    between atoms: C_2  and  CA_3 
REMARK    4  A    between atoms: CA_3  and  C_4 
REMARK    5  A    between atoms: CA_3  and  N_7 
REMARK    6  A    between atoms: C_4  and  OXT_6 
REMARK    7  A    between atoms: C_8  and  N_9 
ROOT
HETATM    1  CA  UNL     1      -1.079  -1.016   0.822  1.00  0.00     0.314 C 
ENDROOT
BRANCH   1   2
HETATM    2  C   UNL     1       0.455  -0.980   0.818  1.00  0.00     0.048 C 
BRANCH   2   3
HETATM    3  C   UNL     1       1.071   0.092  -0.091  1.00  0.00     0.032 C 
BRANCH   3   4
HETATM    4  C   UNL     1       0.699   1.519   0.309  1.00  0.00     0.267 C 
BRANCH   4   5
HETATM    5  N   UNL     1       1.352   2.468  -0.582  1.00  0.00     0.078 N 
HETATM    6  H   UNL     1       2.364   2.393  -0.497  1.00  0.00     0.312 HD
HETATM    7  H   UNL     1       1.108   3.419  -0.306  1.00  0.00     0.312 HD
ENDBRANCH   4   5
ENDBRANCH   3   4
ENDBRANCH   2   3
ENDBRANCH   1   2
BRANCH   1   8
HETATM    8  C   UNL     1      -1.682  -1.218  -0.579  1.00  0.00     0.173 C 
HETATM    9  O   UNL     1      -2.440  -0.422  -1.115  1.00  0.00    -0.648 OA
BRANCH   8  10
HETATM   10  OXT UNL     1      -1.346  -2.395  -1.157  1.00  0.00    -0.775 OA
HETATM   11  HXT UNL     1      -0.725  -2.923  -0.624  1.00  0.00     0.167 HD
ENDBRANCH   8  10
ENDBRANCH   1   8
BRANCH   1  12
HETATM   12  N   UNL     1      -1.549  -2.080   1.736  1.00  0.00     0.093 N 
HETATM   13  H1  UNL     1      -1.302  -3.009   1.411  1.00  0.00     0.314 HD
HETATM   14  H2  UNL     1      -2.571  -2.053   1.767  1.00  0.00     0.314 HD
ENDBRANCH   1  12
TORSDOF 7
