REMARK  1 active torsions:
REMARK  status: ('A' for Active; 'I' for Inactive)
REMARK    1  A    between atoms: C_5  and  O_32 
ROOT
HETATM    1  C   UNL     1       0.881  -0.577   0.109  1.00  0.00     0.018 C 
HETATM    2  C   UNL     1       2.007   0.394   0.520  1.00  0.00     0.062 C 
HETATM    3  C   UNL     1       1.644   1.782   0.044  1.00  0.00     0.159 C 
HETATM    4  O   UNL     1       0.717   2.038  -0.728  1.00  0.00    -0.295 OA
HETATM    5  C   UNL     1       2.567   2.906   0.571  1.00  0.00     0.188 C 
HETATM    6  C   UNL     1       3.986   2.600   0.098  1.00  0.00     0.045 C 
HETATM    7  C   UNL     1       4.485   1.222   0.585  1.00  0.00     0.006 C 
HETATM    8  C   UNL     1       3.479   0.054   0.039  1.00  0.00    -0.029 C 
HETATM    9  C   UNL     1       3.949  -1.273   0.656  1.00  0.00     0.011 C 
HETATM   10  C   UNL     1       5.418  -1.518   0.312  1.00  0.00     0.007 C 
HETATM   11  C   UNL     1       6.309  -0.473   1.035  1.00  0.00     0.003 C 
HETATM   12  C   UNL     1       6.082   0.976   0.454  1.00  0.00    -0.035 C 
HETATM   13  C   UNL     1       7.030   1.788   1.399  1.00  0.00     0.011 C 
HETATM   14  C   UNL     1       8.582   1.382   1.198  1.00  0.00     0.011 C 
HETATM   15  C   UNL     1       8.883   0.107   2.055  1.00  0.00    -0.032 C 
HETATM   16  C   UNL     1       7.790  -0.972   1.324  1.00  0.00    -0.032 C 
HETATM   17  C   UNL     1       7.645  -2.239   2.210  1.00  0.00     0.011 C 
HETATM   18  C   UNL     1       8.937  -2.982   2.417  1.00  0.00     0.010 C 
HETATM   19  C   UNL     1       9.990  -2.100   3.086  1.00  0.00    -0.040 C 
HETATM   20  C   UNL     1      10.254  -0.789   2.160  1.00  0.00     0.003 C 
HETATM   21  C   UNL     1      11.724  -0.278   2.441  1.00  0.00     0.015 C 
HETATM   22  C   UNL     1      12.821  -1.425   2.078  1.00  0.00    -0.047 C 
HETATM   23  C   UNL     1      12.121  -2.801   1.977  1.00  0.00     0.009 C 
HETATM   24  C   UNL     1      11.252  -2.969   3.209  1.00  0.00     0.010 C 
HETATM   25  C   UNL     1      13.924  -1.624   3.146  1.00  0.00     0.015 C 
HETATM   26  C   UNL     1      13.558  -1.136   0.744  1.00  0.00     0.015 C 
HETATM   27  C   UNL     1       9.496  -1.880   4.541  1.00  0.00     0.015 C 
HETATM   28  C   UNL     1       8.305  -1.441  -0.105  1.00  0.00     0.016 C 
HETATM   29  C   UNL     1       8.881   0.846   3.446  1.00  0.00     0.016 C 
HETATM   30  C   UNL     1       6.517   1.486  -0.942  1.00  0.00     0.016 C 
HETATM   31  C   UNL     1       3.420  -0.199  -1.500  1.00  0.00     0.016 C 
ENDROOT
BRANCH   5  32
HETATM   32  O   UNL     1       2.488   3.049   1.985  1.00  0.00    -0.388 OA
HETATM   33  H   UNL     1       2.812   2.245   2.421  1.00  0.00     0.210 HD
ENDBRANCH   5  32
TORSDOF 1
