REMARK  7 active torsions:
REMARK  status: ('A' for Active; 'I' for Inactive)
REMARK    1  A    between atoms: C_2  and  C_10 
REMARK    2  A    between atoms: C_4  and  O_9 
REMARK    3  A    between atoms: C_5  and  O_8 
REMARK    4  A    between atoms: C_6  and  O_7 
REMARK    5  A    between atoms: C_14  and  O_22 
REMARK    6  A    between atoms: C_16  and  O_21 
REMARK    7  A    between atoms: C_19  and  O_20 
ROOT
HETATM    1 CL   UNL     2       0.780   0.010   3.928  1.00  0.00     0.000 Cl
ENDROOT
TORSDOF 7
