REMARK WARNING: 32 MAX_TORS EXCEEDED!!!
REMARK  62 active torsions:
REMARK  status: ('A' for Active; 'I' for Inactive)
REMARK    1  A    between atoms: C_2  and  C_4 
REMARK    2  A    between atoms: C_4  and  C_5 
REMARK    3  A    between atoms: C_5  and  C_6 
REMARK    4  A    between atoms: C_6  and  C_7 
REMARK    5  A    between atoms: C_7  and  C_8 
REMARK    6  A    between atoms: C_8  and  C_9 
REMARK    7  A    between atoms: C_9  and  C_10 
REMARK    8  A    between atoms: C_10  and  C_11 
REMARK    9  A    between atoms: C_11  and  C_12 
REMARK   10  A    between atoms: C_12  and  C_13 
REMARK   11  A    between atoms: C_13  and  C_14 
REMARK   12  A    between atoms: C_14  and  C_15 
REMARK   13  A    between atoms: C_15  and  C_16 
REMARK   14  A    between atoms: C_16  and  C_17 
REMARK   15  A    between atoms: C_17  and  C_18 
REMARK   16  A    between atoms: C_18  and  O_20 
REMARK   17  A    between atoms: O_20  and  C_21 
REMARK   18  A    between atoms: C_21  and  C_22 
REMARK   19  A    between atoms: C_22  and  O_23 
REMARK   20  A    between atoms: O_23  and  C_24 
REMARK   21  A    between atoms: C_24  and  C_25 
REMARK   22  A    between atoms: C_25  and  C_26 
REMARK   23  A    between atoms: C_25  and  O_50 
REMARK   24  A    between atoms: C_26  and  O_27 
REMARK   25  A    between atoms: O_27  and  C_28 
REMARK   26  A    between atoms: C_28  and  C_29 
REMARK   27  A    between atoms: C_29  and  O_30 
REMARK   28  A    between atoms: O_30  and  C_31 
REMARK   29  A    between atoms: C_31  and  C_33 
REMARK   30  A    between atoms: C_33  and  C_34 
REMARK   31  A    between atoms: C_34  and  C_35 
REMARK   32  A    between atoms: C_35  and  C_36 
REMARK   33  A    between atoms: C_36  and  C_37 
REMARK   34  A    between atoms: C_37  and  C_38 
REMARK   35  A    between atoms: C_38  and  C_39 
REMARK   36  A    between atoms: C_39  and  C_40 
REMARK   37  A    between atoms: C_40  and  C_41 
REMARK   38  A    between atoms: C_41  and  C_42 
REMARK   39  A    between atoms: C_42  and  C_43 
REMARK   40  A    between atoms: C_43  and  C_44 
REMARK   41  A    between atoms: C_44  and  C_45 
REMARK   42  A    between atoms: C_45  and  C_46 
REMARK   43  A    between atoms: C_46  and  C_47 
REMARK   44  A    between atoms: O_50  and  C_51 
REMARK   45  A    between atoms: C_51  and  C_52 
REMARK   46  A    between atoms: C_52  and  O_53 
REMARK   47  A    between atoms: O_53  and  C_54 
REMARK   48  A    between atoms: C_54  and  C_56 
REMARK   49  A    between atoms: C_56  and  C_57 
REMARK   50  A    between atoms: C_57  and  C_58 
REMARK   51  A    between atoms: C_58  and  C_59 
REMARK   52  A    between atoms: C_59  and  C_60 
REMARK   53  A    between atoms: C_60  and  C_61 
REMARK   54  A    between atoms: C_61  and  C_62 
REMARK   55  A    between atoms: C_62  and  C_63 
REMARK   56  A    between atoms: C_63  and  C_64 
REMARK   57  A    between atoms: C_64  and  C_65 
REMARK   58  A    between atoms: C_65  and  C_66 
REMARK   59  A    between atoms: C_66  and  C_67 
REMARK   60  A    between atoms: C_67  and  C_68 
REMARK   61  A    between atoms: C_68  and  C_69 
REMARK   62  A    between atoms: C_69  and  C_70 
ROOT
HETATM    1  C   UNL     1      23.065   5.328  14.926  1.00  0.00     0.169 C 
ENDROOT
BRANCH   1   2
HETATM    2  C   UNL     1      22.549   4.825  13.576  1.00  0.00     0.201 C 
BRANCH   2   3
HETATM    3  O   UNL     1      21.124   4.859  13.511  1.00  0.00    -0.386 OA
BRANCH   3   4
HETATM    4  C   UNL     1      20.594   6.172  13.736  1.00  0.00     0.194 C 
BRANCH   4   5
HETATM    5  C   UNL     1      21.082   7.161  12.696  1.00  0.00     0.205 C 
BRANCH   5   6
HETATM    6  O   UNL     1      20.564   8.466  12.934  1.00  0.00    -0.319 OA
BRANCH   6   7
HETATM    7  C   UNL     1      21.195   9.203  13.923  1.00  0.00     0.258 C 
HETATM    8  O   UNL     1      22.072   8.811  14.669  1.00  0.00    -0.265 OA
BRANCH   7   9
HETATM    9  C   UNL     1      20.634  10.580  14.064  1.00  0.00     0.111 C 
BRANCH   9  10
HETATM   10  C   UNL     1      19.182  10.474  14.491  1.00  0.00     0.010 C 
BRANCH  10  11
HETATM   11  C   UNL     1      19.038   9.702  15.796  1.00  0.00     0.000 C 
BRANCH  11  12
HETATM   12  C   UNL     1      17.577   9.605  16.183  1.00  0.00     0.000 C 
BRANCH  12  13
HETATM   13  C   UNL     1      17.433   8.832  17.480  1.00  0.00     0.000 C 
BRANCH  13  14
HETATM   14  C   UNL     1      15.969   8.739  17.869  1.00  0.00     0.000 C 
BRANCH  14  15
HETATM   15  C   UNL     1      15.828   7.968  19.168  1.00  0.00     0.000 C 
BRANCH  15  16
HETATM   16  C   UNL     1      14.364   7.875  19.554  1.00  0.00     0.000 C 
BRANCH  16  17
HETATM   17  C   UNL     1      14.221   7.104  20.850  1.00  0.00     0.000 C 
BRANCH  17  18
HETATM   18  C   UNL     1      12.760   7.015  21.239  1.00  0.00     0.000 C 
BRANCH  18  19
HETATM   19  C   UNL     1      12.618   6.249  22.538  1.00  0.00     0.000 C 
BRANCH  19  20
HETATM   20  C   UNL     1      11.153   6.166  22.918  1.00  0.00     0.000 C 
BRANCH  20  21
HETATM   21  C   UNL     1      11.016   5.398  24.212  1.00  0.00     0.000 C 
BRANCH  21  22
HETATM   22  C   UNL     1       9.555   5.291  24.619  1.00  0.00     0.004 C 
BRANCH  22  23
HETATM   23  C   UNL     1       9.408   4.512  25.927  1.00  0.00    -0.023 C 
HETATM   24  C   UNL     1       7.936   4.433  26.311  1.00  0.00     0.009 C 
HETATM   25  C   UNL     1       9.976   3.101  25.786  1.00  0.00     0.009 C 
ENDBRANCH  22  23
ENDBRANCH  21  22
ENDBRANCH  20  21
ENDBRANCH  19  20
ENDBRANCH  18  19
ENDBRANCH  17  18
ENDBRANCH  16  17
ENDBRANCH  15  16
ENDBRANCH  14  15
ENDBRANCH  13  14
ENDBRANCH  12  13
ENDBRANCH  11  12
ENDBRANCH  10  11
ENDBRANCH   9  10
ENDBRANCH   7   9
ENDBRANCH   6   7
ENDBRANCH   5   6
ENDBRANCH   4   5
ENDBRANCH   3   4
ENDBRANCH   2   3
ENDBRANCH   1   2
BRANCH   1  26
HETATM   26  C   UNL     1      22.554   4.415  16.034  1.00  0.00     0.201 C 
BRANCH  26  27
HETATM   27  O   UNL     1      22.986   3.079  15.807  1.00  0.00    -0.386 OA
BRANCH  27  28
HETATM   28  C   UNL     1      24.408   2.979  15.875  1.00  0.00     0.194 C 
BRANCH  28  29
HETATM   29  C   UNL     1      24.876   1.570  15.644  1.00  0.00     0.205 C 
BRANCH  29  30
HETATM   30  O   UNL     1      24.366   0.713  16.676  1.00  0.00    -0.319 OA
BRANCH  30  31
HETATM   31  C   UNL     1      25.060   0.757  17.849  1.00  0.00     0.258 C 
HETATM   32  O   UNL     1      26.035   1.467  18.076  1.00  0.00    -0.265 OA
BRANCH  31  33
HETATM   33  C   UNL     1      24.440  -0.144  18.892  1.00  0.00     0.111 C 
BRANCH  33  34
HETATM   34  C   UNL     1      24.017   0.655  20.118  1.00  0.00     0.010 C 
BRANCH  34  35
HETATM   35  C   UNL     1      22.960   1.695  19.763  1.00  0.00     0.000 C 
BRANCH  35  36
HETATM   36  C   UNL     1      22.560   2.485  20.996  1.00  0.00     0.000 C 
BRANCH  36  37
HETATM   37  C   UNL     1      21.514   3.522  20.629  1.00  0.00     0.000 C 
BRANCH  37  38
HETATM   38  C   UNL     1      21.110   4.311  21.860  1.00  0.00     0.000 C 
BRANCH  38  39
HETATM   39  C   UNL     1      20.064   5.346  21.491  1.00  0.00     0.000 C 
BRANCH  39  40
HETATM   40  C   UNL     1      19.663   6.136  22.722  1.00  0.00     0.000 C 
BRANCH  40  41
HETATM   41  C   UNL     1      18.617   7.170  22.351  1.00  0.00     0.000 C 
BRANCH  41  42
HETATM   42  C   UNL     1      18.221   7.959  23.583  1.00  0.00     0.000 C 
BRANCH  42  43
HETATM   43  C   UNL     1      17.183   8.997  23.217  1.00  0.00     0.000 C 
BRANCH  43  44
HETATM   44  C   UNL     1      16.788   9.782  24.452  1.00  0.00     0.000 C 
BRANCH  44  45
HETATM   45  C   UNL     1      15.747  10.812  24.078  1.00  0.00     0.000 C 
BRANCH  45  46
HETATM   46  C   UNL     1      15.330  11.616  25.300  1.00  0.00     0.004 C 
BRANCH  46  47
HETATM   47  C   UNL     1      14.277  12.662  24.931  1.00  0.00    -0.023 C 
HETATM   48  C   UNL     1      13.029  11.996  24.354  1.00  0.00     0.009 C 
HETATM   49  C   UNL     1      13.900  13.466  26.169  1.00  0.00     0.009 C 
ENDBRANCH  46  47
ENDBRANCH  45  46
ENDBRANCH  44  45
ENDBRANCH  43  44
ENDBRANCH  42  43
ENDBRANCH  41  42
ENDBRANCH  40  41
ENDBRANCH  39  40
ENDBRANCH  38  39
ENDBRANCH  37  38
ENDBRANCH  36  37
ENDBRANCH  35  36
ENDBRANCH  34  35
ENDBRANCH  33  34
ENDBRANCH  31  33
ENDBRANCH  30  31
ENDBRANCH  29  30
ENDBRANCH  28  29
ENDBRANCH  27  28
ENDBRANCH  26  27
ENDBRANCH   1  26
BRANCH   1  50
HETATM   50  O   UNL     1      24.494   5.483  14.961  1.00  0.00    -0.380 OA
BRANCH  50  51
HETATM   51  C   UNL     1      25.051   6.243  13.915  1.00  0.00     0.195 C 
BRANCH  51  52
HETATM   52  C   UNL     1      24.637   7.676  14.121  1.00  0.00     0.205 C 
BRANCH  52  53
HETATM   53  O   UNL     1      25.131   8.548  13.106  1.00  0.00    -0.319 OA
BRANCH  53  54
HETATM   54  C   UNL     1      24.204   9.168  12.314  1.00  0.00     0.258 C 
HETATM   55  O   UNL     1      23.030   9.101  12.373  1.00  0.00    -0.265 OA
BRANCH  54  56
HETATM   56  C   UNL     1      24.823  10.018  11.264  1.00  0.00     0.111 C 
BRANCH  56  57
HETATM   57  C   UNL     1      25.666   9.184  10.327  1.00  0.00     0.010 C 
BRANCH  57  58
HETATM   58  C   UNL     1      24.853   8.099   9.634  1.00  0.00     0.000 C 
BRANCH  58  59
HETATM   59  C   UNL     1      25.746   7.291   8.710  1.00  0.00     0.000 C 
BRANCH  59  60
HETATM   60  C   UNL     1      24.939   6.206   8.023  1.00  0.00     0.000 C 
BRANCH  60  61
HETATM   61  C   UNL     1      25.832   5.400   7.098  1.00  0.00     0.000 C 
BRANCH  61  62
HETATM   62  C   UNL     1      25.022   4.318   6.410  1.00  0.00     0.000 C 
BRANCH  62  63
HETATM   63  C   UNL     1      25.916   3.513   5.486  1.00  0.00     0.000 C 
BRANCH  63  64
HETATM   64  C   UNL     1      25.106   2.430   4.801  1.00  0.00     0.000 C 
BRANCH  64  65
HETATM   65  C   UNL     1      26.001   1.628   3.878  1.00  0.00     0.000 C 
BRANCH  65  66
HETATM   66  C   UNL     1      25.194   0.546   3.192  1.00  0.00     0.000 C 
BRANCH  66  67
HETATM   67  C   UNL     1      26.098  -0.254   2.273  1.00  0.00     0.000 C 
BRANCH  67  68
HETATM   68  C   UNL     1      25.287  -1.331   1.591  1.00  0.00     0.000 C 
BRANCH  68  69
HETATM   69  C   UNL     1      26.164  -2.149   0.655  1.00  0.00     0.004 C 
BRANCH  69  70
HETATM   70  C   UNL     1      25.349  -3.238  -0.043  1.00  0.00    -0.023 C 
HETATM   71  C   UNL     1      24.219  -2.627  -0.869  1.00  0.00     0.009 C 
HETATM   72  C   UNL     1      26.261  -4.053  -0.952  1.00  0.00     0.009 C 
ENDBRANCH  69  70
ENDBRANCH  68  69
ENDBRANCH  67  68
ENDBRANCH  66  67
ENDBRANCH  65  66
ENDBRANCH  64  65
ENDBRANCH  63  64
ENDBRANCH  62  63
ENDBRANCH  61  62
ENDBRANCH  60  61
ENDBRANCH  59  60
ENDBRANCH  58  59
ENDBRANCH  57  58
ENDBRANCH  56  57
ENDBRANCH  54  56
ENDBRANCH  53  54
ENDBRANCH  52  53
ENDBRANCH  51  52
ENDBRANCH  50  51
ENDBRANCH   1  50
TORSDOF 62
