REMARK  23 active torsions:
REMARK  status: ('A' for Active; 'I' for Inactive)
REMARK    1  A    between atoms: C_2  and  C_3 
REMARK    2  A    between atoms: C_3  and  C_4 
REMARK    3  A    between atoms: C_4  and  C_5 
REMARK    4  A    between atoms: C_5  and  C_6 
REMARK    5  A    between atoms: C_6  and  C_7 
REMARK    6  A    between atoms: C_7  and  C_8 
REMARK    7  A    between atoms: C_8  and  C_9 
REMARK    8  A    between atoms: C_9  and  C_10 
REMARK    9  A    between atoms: C_10  and  C_11 
REMARK   10  A    between atoms: C_11  and  C_12 
REMARK   11  A    between atoms: C_12  and  C_13 
REMARK   12  A    between atoms: C_13  and  C_14 
REMARK   13  A    between atoms: C_14  and  C_15 
REMARK   14  A    between atoms: C_15  and  C_16 
REMARK   15  A    between atoms: C_16  and  C_17 
REMARK   16  A    between atoms: C_17  and  C_18 
REMARK   17  A    between atoms: C_18  and  O_20 
REMARK   18  A    between atoms: O_20  and  C_21 
REMARK   19  A    between atoms: C_21  and  C_22 
REMARK   20  A    between atoms: C_22  and  O_23 
REMARK   21  A    between atoms: O_23  and  C_24 
REMARK   22  A    between atoms: C_24  and  C_25 
REMARK   23  A    between atoms: C_25  and  O_26 
ROOT
HETATM    1  C   UNL     1      14.753   3.168  -8.069  1.00  0.00     0.000 C 
ENDROOT
BRANCH   1   2
HETATM    2  C   UNL     1      13.235   3.164  -8.059  1.00  0.00     0.000 C 
BRANCH   2   3
HETATM    3  C   UNL     1      12.723   2.636  -6.731  1.00  0.00     0.000 C 
BRANCH   3   4
HETATM    4  C   UNL     1      11.206   2.634  -6.726  1.00  0.00     0.000 C 
BRANCH   4   5
HETATM    5  C   UNL     1      10.696   2.107  -5.399  1.00  0.00     0.000 C 
BRANCH   5   6
HETATM    6  C   UNL     1       9.179   2.105  -5.394  1.00  0.00     0.000 C 
BRANCH   6   7
HETATM    7  C   UNL     1       8.669   1.577  -4.067  1.00  0.00     0.000 C 
BRANCH   7   8
HETATM    8  C   UNL     1       7.152   1.575  -4.062  1.00  0.00     0.000 C 
BRANCH   8   9
HETATM    9  C   UNL     1       6.642   1.047  -2.735  1.00  0.00     0.000 C 
BRANCH   9  10
HETATM   10  C   UNL     1       5.125   1.047  -2.729  1.00  0.00     0.000 C 
BRANCH  10  11
HETATM   11  C   UNL     1       4.614   0.521  -1.401  1.00  0.00     0.000 C 
BRANCH  11  12
HETATM   12  C   UNL     1       3.097   0.520  -1.393  1.00  0.00    -0.000 C 
BRANCH  12  13
HETATM   13  C   UNL     1       2.579  -0.006  -0.064  1.00  0.00    -0.005 C 
HETATM   14  C   UNL     1       1.065  -0.008  -0.060  1.00  0.00     0.005 C 
ENDBRANCH  12  13
ENDBRANCH  11  12
ENDBRANCH  10  11
ENDBRANCH   9  10
ENDBRANCH   8   9
ENDBRANCH   7   8
ENDBRANCH   6   7
ENDBRANCH   5   6
ENDBRANCH   4   5
ENDBRANCH   3   4
ENDBRANCH   2   3
ENDBRANCH   1   2
BRANCH   1  15
HETATM   15  C   UNL     1      15.265   3.698  -9.401  1.00  0.00     0.000 C 
BRANCH  15  16
HETATM   16  C   UNL     1      16.785   3.702  -9.418  1.00  0.00     0.010 C 
BRANCH  16  17
HETATM   17  C   UNL     1      17.350   4.218 -10.744  1.00  0.00     0.111 C 
BRANCH  17  18
HETATM   18  C   UNL     1      18.857   4.209 -10.709  1.00  0.00     0.258 C 
HETATM   19  O   UNL     1      19.521   3.833  -9.734  1.00  0.00    -0.265 OA
BRANCH  18  20
HETATM   20  O   UNL     1      19.402   4.702 -11.855  1.00  0.00    -0.319 OA
BRANCH  20  21
HETATM   21  C   UNL     1      20.303   5.812 -11.678  1.00  0.00     0.205 C 
BRANCH  21  22
HETATM   22  C   UNL     1      21.720   5.488 -12.137  1.00  0.00     0.194 C 
BRANCH  22  23
HETATM   23  O   UNL     1      22.560   6.632 -11.977  1.00  0.00    -0.387 OA
BRANCH  23  24
HETATM   24  C   UNL     1      23.903   6.328 -12.398  1.00  0.00     0.193 C 
BRANCH  24  25
HETATM   25  C   UNL     1      24.804   7.543 -12.232  1.00  0.00     0.190 C 
BRANCH  25  26
HETATM   26  O   UNL     1      24.849   7.951 -10.867  1.00  0.00    -0.399 OA
HETATM   27  H   UNL     1      23.940   8.181 -10.608  1.00  0.00     0.209 HD
ENDBRANCH  25  26
ENDBRANCH  24  25
ENDBRANCH  23  24
ENDBRANCH  22  23
ENDBRANCH  21  22
ENDBRANCH  20  21
ENDBRANCH  18  20
ENDBRANCH  17  18
ENDBRANCH  16  17
ENDBRANCH  15  16
ENDBRANCH   1  15
TORSDOF 23
