REMARK WARNING: 32 MAX_TORS EXCEEDED!!!
REMARK  36 active torsions:
REMARK  status: ('A' for Active; 'I' for Inactive)
REMARK    1  A    between atoms: C_2  and  C_5 
REMARK    2  A    between atoms: C_7  and  C_16 
REMARK    3  A    between atoms: C_9  and  C_12 
REMARK    4  A    between atoms: C_10  and  O_11 
REMARK    5  A    between atoms: C_16  and  C_17 
REMARK    6  A    between atoms: C_17  and  C_18 
REMARK    7  A    between atoms: C_18  and  O_20 
REMARK    8  A    between atoms: O_20  and  C_21 
REMARK    9  A    between atoms: C_21  and  C_22 
REMARK   10  A    between atoms: C_22  and  C_23 
REMARK   11  A    between atoms: C_22  and  C_44 
REMARK   12  A    between atoms: C_22  and  C_65 
REMARK   13  A    between atoms: C_23  and  O_24 
REMARK   14  A    between atoms: O_24  and  C_25 
REMARK   15  A    between atoms: C_25  and  C_27 
REMARK   16  A    between atoms: C_27  and  C_28 
REMARK   17  A    between atoms: C_28  and  C_29 
REMARK   18  A    between atoms: C_31  and  C_40 
REMARK   19  A    between atoms: C_32  and  O_39 
REMARK   20  A    between atoms: C_33  and  C_35 
REMARK   21  A    between atoms: C_44  and  O_45 
REMARK   22  A    between atoms: O_45  and  C_46 
REMARK   23  A    between atoms: C_46  and  C_48 
REMARK   24  A    between atoms: C_48  and  C_49 
REMARK   25  A    between atoms: C_49  and  C_50 
REMARK   26  A    between atoms: C_52  and  C_61 
REMARK   27  A    between atoms: C_53  and  O_60 
REMARK   28  A    between atoms: C_54  and  C_56 
REMARK   29  A    between atoms: C_65  and  O_66 
REMARK   30  A    between atoms: O_66  and  C_67 
REMARK   31  A    between atoms: C_67  and  C_69 
REMARK   32  A    between atoms: C_69  and  C_70 
REMARK   33  A    between atoms: C_70  and  C_71 
REMARK   34  A    between atoms: C_73  and  C_82 
REMARK   35  A    between atoms: C_74  and  O_81 
REMARK   36  A    between atoms: C_75  and  C_77 
ROOT
HETATM    1  C   UNL     1       3.835  -8.112  -6.757  1.00  0.00     0.048 C 
ENDROOT
BRANCH   1   2
HETATM    2  C   UNL     1       3.329  -7.864  -5.285  1.00  0.00     0.195 C 
BRANCH   2   3
HETATM    3  O   UNL     1       1.932  -8.077  -4.996  1.00  0.00    -0.320 OA
BRANCH   3   4
HETATM    4  C   UNL     1       1.588  -8.930  -3.980  1.00  0.00     0.259 C 
HETATM    5  O   UNL     1       2.380  -9.577  -3.303  1.00  0.00    -0.265 OA
BRANCH   4   6
HETATM    6  C   UNL     1       0.091  -9.077  -3.795  1.00  0.00     0.116 C 
BRANCH   6   7
HETATM    7  C   UNL     1      -0.696  -8.501  -4.942  1.00  0.00     0.048 C 
BRANCH   7   8
HETATM    8  C   UNL     1      -0.238  -9.031  -6.283  1.00  0.00    -0.056 C 
HETATM    9  C   UNL     1       0.732 -10.566  -6.489  1.00  0.00     0.018 C 
HETATM   10  C   UNL     1       0.865 -11.307  -8.206  1.00  0.00    -0.016 C 
HETATM   11  C   UNL     1      -0.010 -10.476  -9.560  1.00  0.00     0.079 C 
HETATM   12  C   UNL     1      -1.049  -9.023  -9.254  1.00  0.00    -0.016 C 
HETATM   13  C   UNL     1      -1.066  -8.271  -7.647  1.00  0.00     0.018 C 
BRANCH  10  14
HETATM   14  C   UNL     1       1.960 -12.279  -8.520  1.00  0.00    -0.021 C 
HETATM   15  C   UNL     1       2.598 -12.760  -7.205  1.00  0.00     0.019 C 
HETATM   16  C   UNL     1       2.960 -11.663  -9.534  1.00  0.00     0.019 C 
HETATM   17  C   UNL     1       1.256 -13.448  -9.192  1.00  0.00     0.019 C 
ENDBRANCH  10  14
BRANCH  11  18
HETATM   18  O   UNL     1       0.318 -10.771 -10.850  1.00  0.00    -0.360 OA
HETATM   19  H   UNL     1       0.433  -9.897 -11.272  1.00  0.00     0.217 HD
ENDBRANCH  11  18
BRANCH  12  20
HETATM   20  C   UNL     1      -1.848  -8.309 -10.344  1.00  0.00    -0.021 C 
HETATM   21  C   UNL     1      -0.934  -7.165 -10.815  1.00  0.00     0.019 C 
HETATM   22  C   UNL     1      -2.275  -9.394 -11.340  1.00  0.00     0.019 C 
HETATM   23  C   UNL     1      -3.165  -7.607  -9.923  1.00  0.00     0.019 C 
ENDBRANCH  12  20
ENDBRANCH   7   8
ENDBRANCH   6   7
ENDBRANCH   4   6
ENDBRANCH   3   4
ENDBRANCH   2   3
ENDBRANCH   1   2
BRANCH   1  24
HETATM   24  C   UNL     1       3.097  -7.336  -7.821  1.00  0.00     0.195 C 
BRANCH  24  25
HETATM   25  O   UNL     1       3.234  -5.985  -7.691  1.00  0.00    -0.320 OA
BRANCH  25  26
HETATM   26  C   UNL     1       2.255  -5.400  -6.939  1.00  0.00     0.259 C 
HETATM   27  O   UNL     1       1.143  -5.808  -6.649  1.00  0.00    -0.265 OA
BRANCH  26  28
HETATM   28  C   UNL     1       2.933  -4.251  -6.332  1.00  0.00     0.116 C 
BRANCH  28  29
HETATM   29  C   UNL     1       3.857  -3.742  -7.432  1.00  0.00     0.048 C 
BRANCH  29  30
HETATM   30  C   UNL     1       4.595  -2.589  -6.923  1.00  0.00    -0.056 A 
HETATM   31  C   UNL     1       5.818  -2.768  -6.295  1.00  0.00     0.018 A 
HETATM   32  C   UNL     1       6.538  -1.682  -5.815  1.00  0.00    -0.016 A 
HETATM   33  C   UNL     1       5.910  -0.412  -5.972  1.00  0.00     0.079 A 
HETATM   34  C   UNL     1       4.617  -0.235  -6.542  1.00  0.00    -0.016 A 
HETATM   35  C   UNL     1       3.999  -1.359  -7.047  1.00  0.00     0.018 A 
BRANCH  32  36
HETATM   36  C   UNL     1       7.936  -1.945  -5.211  1.00  0.00    -0.021 C 
HETATM   37  C   UNL     1       8.341  -3.454  -5.195  1.00  0.00     0.019 C 
HETATM   38  C   UNL     1       9.014  -1.229  -6.049  1.00  0.00     0.019 C 
HETATM   39  C   UNL     1       8.007  -1.503  -3.735  1.00  0.00     0.019 C 
ENDBRANCH  32  36
BRANCH  33  40
HETATM   40  O   UNL     1       6.556   0.736  -5.623  1.00  0.00    -0.360 OA
HETATM   41  H   UNL     1       7.344   0.527  -5.114  1.00  0.00     0.217 HD
ENDBRANCH  33  40
BRANCH  34  42
HETATM   42  C   UNL     1       3.868   1.094  -6.724  1.00  0.00    -0.021 C 
HETATM   43  C   UNL     1       4.246   1.648  -8.109  1.00  0.00     0.019 C 
HETATM   44  C   UNL     1       2.321   0.905  -6.669  1.00  0.00     0.019 C 
HETATM   45  C   UNL     1       4.179   2.138  -5.641  1.00  0.00     0.019 C 
ENDBRANCH  34  42
ENDBRANCH  29  30
ENDBRANCH  28  29
ENDBRANCH  26  28
ENDBRANCH  25  26
ENDBRANCH  24  25
ENDBRANCH   1  24
BRANCH   1  46
HETATM   46  C   UNL     1       5.358  -7.983  -6.930  1.00  0.00     0.195 C 
BRANCH  46  47
HETATM   47  O   UNL     1       6.027  -8.862  -6.010  1.00  0.00    -0.320 OA
BRANCH  47  48
HETATM   48  C   UNL     1       6.192  -8.365  -4.754  1.00  0.00     0.259 C 
HETATM   49  O   UNL     1       6.093  -7.177  -4.475  1.00  0.00    -0.265 OA
BRANCH  48  50
HETATM   50  C   UNL     1       6.199  -9.469  -3.723  1.00  0.00     0.116 C 
BRANCH  50  51
HETATM   51  C   UNL     1       6.825 -10.753  -4.241  1.00  0.00     0.048 C 
BRANCH  51  52
HETATM   52  C   UNL     1       6.969 -11.808  -3.172  1.00  0.00    -0.056 A 
HETATM   53  C   UNL     1       5.856 -12.391  -2.552  1.00  0.00     0.018 A 
HETATM   54  C   UNL     1       5.973 -13.406  -1.574  1.00  0.00    -0.016 A 
HETATM   55  C   UNL     1       7.298 -13.818  -1.263  1.00  0.00     0.079 A 
HETATM   56  C   UNL     1       8.445 -13.303  -1.928  1.00  0.00    -0.016 A 
HETATM   57  C   UNL     1       8.242 -12.263  -2.845  1.00  0.00     0.018 A 
BRANCH  54  58
HETATM   58  C   UNL     1       4.686 -14.053  -0.985  1.00  0.00    -0.021 C 
HETATM   59  C   UNL     1       3.376 -13.427  -1.546  1.00  0.00     0.019 C 
HETATM   60  C   UNL     1       4.635 -15.553  -1.361  1.00  0.00     0.019 C 
HETATM   61  C   UNL     1       4.568 -13.897   0.551  1.00  0.00     0.019 C 
ENDBRANCH  54  58
BRANCH  55  62
HETATM   62  O   UNL     1       7.560 -14.749  -0.294  1.00  0.00    -0.360 OA
HETATM   63  H   UNL     1       6.746 -15.082   0.093  1.00  0.00     0.217 HD
ENDBRANCH  55  62
BRANCH  56  64
HETATM   64  C   UNL     1       9.871 -13.873  -1.721  1.00  0.00    -0.021 C 
HETATM   65  C   UNL     1       9.904 -15.398  -1.984  1.00  0.00     0.019 C 
HETATM   66  C   UNL     1      10.923 -13.276  -2.698  1.00  0.00     0.019 C 
HETATM   67  C   UNL     1      10.375 -13.562  -0.297  1.00  0.00     0.019 C 
ENDBRANCH  56  64
ENDBRANCH  51  52
ENDBRANCH  50  51
ENDBRANCH  48  50
ENDBRANCH  47  48
ENDBRANCH  46  47
ENDBRANCH   1  46
BRANCH   1  68
HETATM   68  C   UNL     1       3.508  -9.511  -7.116  1.00  0.00     0.195 C 
BRANCH  68  69
HETATM   69  O   UNL     1       2.092  -9.572  -7.478  1.00  0.00    -0.320 OA
BRANCH  69  70
HETATM   70  C   UNL     1       0.816  -9.240  -8.125  1.00  0.00     0.259 C 
HETATM   71  O   UNL     1       1.055  -8.443  -9.045  1.00  0.00    -0.265 OA
BRANCH  70  72
HETATM   72  C   UNL     1      -0.919 -10.459  -7.654  1.00  0.00     0.116 C 
BRANCH  72  73
HETATM   73  C   UNL     1      -1.157 -11.627  -6.394  1.00  0.00     0.048 C 
BRANCH  73  74
HETATM   74  C   UNL     1      -2.546 -11.904  -6.094  1.00  0.00    -0.056 A 
HETATM   75  C   UNL     1      -3.498 -11.747  -7.050  1.00  0.00     0.018 A 
HETATM   76  C   UNL     1      -4.825 -11.854  -6.753  1.00  0.00    -0.016 A 
HETATM   77  C   UNL     1      -5.128 -12.245  -5.420  1.00  0.00     0.079 A 
HETATM   78  C   UNL     1      -4.136 -12.416  -4.412  1.00  0.00    -0.016 A 
HETATM   79  C   UNL     1      -2.833 -12.239  -4.800  1.00  0.00     0.018 A 
BRANCH  76  80
HETATM   80  C   UNL     1      -5.746 -11.635  -7.957  1.00  0.00    -0.021 C 
HETATM   81  C   UNL     1      -5.055 -11.007  -9.220  1.00  0.00     0.019 C 
HETATM   82  C   UNL     1      -6.202 -13.027  -8.397  1.00  0.00     0.019 C 
HETATM   83  C   UNL     1      -6.868 -10.647  -7.624  1.00  0.00     0.019 C 
ENDBRANCH  76  80
BRANCH  77  84
HETATM   84  O   UNL     1      -6.412 -12.555  -5.082  1.00  0.00    -0.360 OA
HETATM   85  H   UNL     1      -6.945 -12.583  -5.885  1.00  0.00     0.217 HD
ENDBRANCH  77  84
BRANCH  78  86
HETATM   86  C   UNL     1      -4.286 -12.907  -2.971  1.00  0.00    -0.021 C 
HETATM   87  C   UNL     1      -3.963 -14.416  -3.007  1.00  0.00     0.019 C 
HETATM   88  C   UNL     1      -3.289 -12.216  -1.979  1.00  0.00     0.019 C 
HETATM   89  C   UNL     1      -5.679 -12.648  -2.407  1.00  0.00     0.019 C 
ENDBRANCH  78  86
ENDBRANCH  73  74
ENDBRANCH  72  73
ENDBRANCH  70  72
ENDBRANCH  69  70
ENDBRANCH  68  69
ENDBRANCH   1  68
TORSDOF 36
