REMARK WARNING: 32 MAX_TORS EXCEEDED!!!
REMARK  72 active torsions:
REMARK  status: ('A' for Active; 'I' for Inactive)
REMARK    1  A    between atoms: C_2  and  C_4 
REMARK    2  A    between atoms: C_4  and  C_5 
REMARK    3  A    between atoms: C_5  and  C_6 
REMARK    4  A    between atoms: C_6  and  C_7 
REMARK    5  A    between atoms: C_7  and  C_8 
REMARK    6  A    between atoms: C_8  and  C_9 
REMARK    7  A    between atoms: C_9  and  C_10 
REMARK    8  A    between atoms: C_10  and  C_11 
REMARK    9  A    between atoms: C_11  and  C_12 
REMARK   10  A    between atoms: C_12  and  C_13 
REMARK   11  A    between atoms: C_13  and  C_14 
REMARK   12  A    between atoms: C_14  and  C_15 
REMARK   13  A    between atoms: C_15  and  C_16 
REMARK   14  A    between atoms: C_16  and  C_17 
REMARK   15  A    between atoms: C_17  and  C_18 
REMARK   16  A    between atoms: C_18  and  O_20 
REMARK   17  A    between atoms: O_20  and  C_21 
REMARK   18  A    between atoms: C_21  and  C_22 
REMARK   19  A    between atoms: C_22  and  C_23 
REMARK   20  A    between atoms: C_22  and  C_44 
REMARK   21  A    between atoms: C_22  and  C_65 
REMARK   22  A    between atoms: C_23  and  O_24 
REMARK   23  A    between atoms: O_24  and  C_25 
REMARK   24  A    between atoms: C_25  and  C_27 
REMARK   25  A    between atoms: C_27  and  C_28 
REMARK   26  A    between atoms: C_28  and  C_29 
REMARK   27  A    between atoms: C_29  and  C_30 
REMARK   28  A    between atoms: C_30  and  C_31 
REMARK   29  A    between atoms: C_31  and  C_32 
REMARK   30  A    between atoms: C_32  and  C_33 
REMARK   31  A    between atoms: C_33  and  C_34 
REMARK   32  A    between atoms: C_34  and  C_35 
REMARK   33  A    between atoms: C_35  and  C_36 
REMARK   34  A    between atoms: C_36  and  C_37 
REMARK   35  A    between atoms: C_37  and  C_38 
REMARK   36  A    between atoms: C_38  and  C_39 
REMARK   37  A    between atoms: C_39  and  C_40 
REMARK   38  A    between atoms: C_40  and  C_41 
REMARK   39  A    between atoms: C_44  and  O_45 
REMARK   40  A    between atoms: O_45  and  C_46 
REMARK   41  A    between atoms: C_46  and  C_48 
REMARK   42  A    between atoms: C_48  and  C_49 
REMARK   43  A    between atoms: C_49  and  C_50 
REMARK   44  A    between atoms: C_50  and  C_51 
REMARK   45  A    between atoms: C_51  and  C_52 
REMARK   46  A    between atoms: C_52  and  C_53 
REMARK   47  A    between atoms: C_53  and  C_54 
REMARK   48  A    between atoms: C_54  and  C_55 
REMARK   49  A    between atoms: C_55  and  C_56 
REMARK   50  A    between atoms: C_56  and  C_57 
REMARK   51  A    between atoms: C_57  and  C_58 
REMARK   52  A    between atoms: C_58  and  C_59 
REMARK   53  A    between atoms: C_59  and  C_60 
REMARK   54  A    between atoms: C_60  and  C_61 
REMARK   55  A    between atoms: C_61  and  C_62 
REMARK   56  A    between atoms: C_65  and  O_66 
REMARK   57  A    between atoms: O_66  and  C_67 
REMARK   58  A    between atoms: C_67  and  C_69 
REMARK   59  A    between atoms: C_69  and  C_70 
REMARK   60  A    between atoms: C_70  and  C_71 
REMARK   61  A    between atoms: C_71  and  C_72 
REMARK   62  A    between atoms: C_72  and  C_73 
REMARK   63  A    between atoms: C_73  and  C_74 
REMARK   64  A    between atoms: C_74  and  C_75 
REMARK   65  A    between atoms: C_75  and  C_76 
REMARK   66  A    between atoms: C_76  and  C_77 
REMARK   67  A    between atoms: C_77  and  C_78 
REMARK   68  A    between atoms: C_78  and  C_79 
REMARK   69  A    between atoms: C_79  and  C_80 
REMARK   70  A    between atoms: C_80  and  C_81 
REMARK   71  A    between atoms: C_81  and  C_82 
REMARK   72  A    between atoms: C_82  and  C_83 
ROOT
HETATM    1  C   UNL     1      20.511  -2.602  12.725  1.00  0.00     0.048 C 
ENDROOT
BRANCH   1   2
HETATM    2  C   UNL     1      18.964  -2.597  12.729  1.00  0.00     0.195 C 
BRANCH   2   3
HETATM    3  O   UNL     1      18.430  -3.867  13.173  1.00  0.00    -0.320 OA
BRANCH   3   4
HETATM    4  C   UNL     1      17.656  -3.834  14.298  1.00  0.00     0.258 C 
HETATM    5  O   UNL     1      17.365  -2.826  14.935  1.00  0.00    -0.265 OA
BRANCH   4   6
HETATM    6  C   UNL     1      17.161  -5.217  14.666  1.00  0.00     0.111 C 
BRANCH   6   7
HETATM    7  C   UNL     1      15.641  -5.233  14.635  1.00  0.00     0.010 C 
BRANCH   7   8
HETATM    8  C   UNL     1      15.064  -6.594  14.999  1.00  0.00     0.000 C 
BRANCH   8   9
HETATM    9  C   UNL     1      13.542  -6.540  14.944  1.00  0.00     0.000 C 
BRANCH   9  10
HETATM   10  C   UNL     1      12.955  -7.894  15.305  1.00  0.00     0.000 C 
BRANCH  10  11
HETATM   11  C   UNL     1      11.438  -7.840  15.249  1.00  0.00     0.000 C 
BRANCH  11  12
HETATM   12  C   UNL     1      10.861  -9.196  15.611  1.00  0.00     0.000 C 
BRANCH  12  13
HETATM   13  C   UNL     1       9.346  -9.144  15.557  1.00  0.00     0.000 C 
BRANCH  13  14
HETATM   14  C   UNL     1       8.771 -10.500  15.918  1.00  0.00     0.000 C 
BRANCH  14  15
HETATM   15  C   UNL     1       7.257 -10.443  15.862  1.00  0.00     0.000 C 
BRANCH  15  16
HETATM   16  C   UNL     1       6.678 -11.795  16.224  1.00  0.00     0.000 C 
BRANCH  16  17
HETATM   17  C   UNL     1       5.163 -11.731  16.167  1.00  0.00     0.000 C 
BRANCH  17  18
HETATM   18  C   UNL     1       4.595 -13.086  16.527  1.00  0.00     0.000 C 
BRANCH  18  19
HETATM   19  C   UNL     1       3.075 -13.062  16.479  1.00  0.00     0.004 C 
BRANCH  19  20
HETATM   20  C   UNL     1       2.487 -14.428  16.843  1.00  0.00    -0.023 C 
HETATM   21  C   UNL     1       0.964 -14.360  16.789  1.00  0.00     0.009 C 
HETATM   22  C   UNL     1       2.988 -15.517  15.895  1.00  0.00     0.009 C 
ENDBRANCH  19  20
ENDBRANCH  18  19
ENDBRANCH  17  18
ENDBRANCH  16  17
ENDBRANCH  15  16
ENDBRANCH  14  15
ENDBRANCH  13  14
ENDBRANCH  12  13
ENDBRANCH  11  12
ENDBRANCH  10  11
ENDBRANCH   9  10
ENDBRANCH   8   9
ENDBRANCH   7   8
ENDBRANCH   6   7
ENDBRANCH   4   6
ENDBRANCH   3   4
ENDBRANCH   2   3
ENDBRANCH   1   2
BRANCH   1  23
HETATM   23  C   UNL     1      21.018  -3.704  11.769  1.00  0.00     0.195 C 
BRANCH  23  24
HETATM   24  O   UNL     1      20.546  -3.527  10.416  1.00  0.00    -0.320 OA
BRANCH  24  25
HETATM   25  C   UNL     1      21.525  -3.325   9.485  1.00  0.00     0.258 C 
HETATM   26  O   UNL     1      22.641  -2.878   9.721  1.00  0.00    -0.265 OA
BRANCH  25  27
HETATM   27  C   UNL     1      21.097  -3.839   8.128  1.00  0.00     0.111 C 
BRANCH  27  28
HETATM   28  C   UNL     1      22.023  -4.960   7.665  1.00  0.00     0.010 C 
BRANCH  28  29
HETATM   29  C   UNL     1      22.005  -6.151   8.617  1.00  0.00     0.000 C 
BRANCH  29  30
HETATM   30  C   UNL     1      22.943  -7.242   8.120  1.00  0.00     0.000 C 
BRANCH  30  31
HETATM   31  C   UNL     1      22.924  -8.424   9.074  1.00  0.00     0.000 C 
BRANCH  31  32
HETATM   32  C   UNL     1      23.862  -9.508   8.573  1.00  0.00     0.000 C 
BRANCH  32  33
HETATM   33  C   UNL     1      23.838 -10.686   9.528  1.00  0.00     0.000 C 
BRANCH  33  34
HETATM   34  C   UNL     1      24.773 -11.773   9.033  1.00  0.00     0.000 C 
BRANCH  34  35
HETATM   35  C   UNL     1      24.749 -12.951   9.987  1.00  0.00     0.000 C 
BRANCH  35  36
HETATM   36  C   UNL     1      25.684 -14.035   9.486  1.00  0.00     0.000 C 
BRANCH  36  37
HETATM   37  C   UNL     1      25.665 -15.212  10.439  1.00  0.00     0.000 C 
BRANCH  37  38
HETATM   38  C   UNL     1      26.603 -16.292   9.932  1.00  0.00     0.000 C 
BRANCH  38  39
HETATM   39  C   UNL     1      26.575 -17.463  10.888  1.00  0.00     0.000 C 
BRANCH  39  40
HETATM   40  C   UNL     1      27.506 -18.569  10.413  1.00  0.00     0.004 C 
BRANCH  40  41
HETATM   41  C   UNL     1      27.486 -19.761  11.373  1.00  0.00    -0.023 C 
HETATM   42  C   UNL     1      26.082 -20.355  11.489  1.00  0.00     0.009 C 
HETATM   43  C   UNL     1      28.457 -20.830  10.880  1.00  0.00     0.009 C 
ENDBRANCH  40  41
ENDBRANCH  39  40
ENDBRANCH  38  39
ENDBRANCH  37  38
ENDBRANCH  36  37
ENDBRANCH  35  36
ENDBRANCH  34  35
ENDBRANCH  33  34
ENDBRANCH  32  33
ENDBRANCH  31  32
ENDBRANCH  30  31
ENDBRANCH  29  30
ENDBRANCH  28  29
ENDBRANCH  27  28
ENDBRANCH  25  27
ENDBRANCH  24  25
ENDBRANCH  23  24
ENDBRANCH   1  23
BRANCH   1  44
HETATM   44  C   UNL     1      21.039  -1.228  12.242  1.00  0.00     0.195 C 
BRANCH  44  45
HETATM   45  O   UNL     1      20.584  -0.130  13.067  1.00  0.00    -0.320 OA
BRANCH  45  46
HETATM   46  C   UNL     1      21.551   0.577  13.708  1.00  0.00     0.258 C 
HETATM   47  O   UNL     1      22.684   0.156  14.001  1.00  0.00    -0.265 OA
BRANCH  46  48
HETATM   48  C   UNL     1      21.117   2.014  13.933  1.00  0.00     0.111 C 
BRANCH  48  49
HETATM   49  C   UNL     1      22.039   2.973  13.202  1.00  0.00     0.010 C 
BRANCH  49  50
HETATM   50  C   UNL     1      22.039   2.737  11.696  1.00  0.00     0.000 C 
BRANCH  50  51
HETATM   51  C   UNL     1      22.976   3.725  11.017  1.00  0.00     0.000 C 
BRANCH  51  52
HETATM   52  C   UNL     1      22.983   3.495   9.517  1.00  0.00     0.000 C 
BRANCH  52  53
HETATM   53  C   UNL     1      23.916   4.483   8.838  1.00  0.00     0.000 C 
BRANCH  53  54
HETATM   54  C   UNL     1      23.915   4.245   7.339  1.00  0.00     0.000 C 
BRANCH  54  55
HETATM   55  C   UNL     1      24.848   5.229   6.660  1.00  0.00     0.000 C 
BRANCH  55  56
HETATM   56  C   UNL     1      24.848   4.989   5.163  1.00  0.00     0.000 C 
BRANCH  56  57
HETATM   57  C   UNL     1      25.781   5.975   4.488  1.00  0.00     0.000 C 
BRANCH  57  58
HETATM   58  C   UNL     1      25.783   5.739   2.992  1.00  0.00     0.000 C 
BRANCH  58  59
HETATM   59  C   UNL     1      26.718   6.730   2.323  1.00  0.00     0.000 C 
BRANCH  59  60
HETATM   60  C   UNL     1      26.713   6.486   0.830  1.00  0.00     0.000 C 
BRANCH  60  61
HETATM   61  C   UNL     1      27.639   7.464   0.123  1.00  0.00     0.004 C 
BRANCH  61  62
HETATM   62  C   UNL     1      27.642   7.229  -1.391  1.00  0.00    -0.023 C 
HETATM   63  C   UNL     1      26.242   7.407  -1.980  1.00  0.00     0.009 C 
HETATM   64  C   UNL     1      28.607   8.203  -2.057  1.00  0.00     0.009 C 
ENDBRANCH  61  62
ENDBRANCH  60  61
ENDBRANCH  59  60
ENDBRANCH  58  59
ENDBRANCH  57  58
ENDBRANCH  56  57
ENDBRANCH  55  56
ENDBRANCH  54  55
ENDBRANCH  53  54
ENDBRANCH  52  53
ENDBRANCH  51  52
ENDBRANCH  50  51
ENDBRANCH  49  50
ENDBRANCH  48  49
ENDBRANCH  46  48
ENDBRANCH  45  46
ENDBRANCH  44  45
ENDBRANCH   1  44
BRANCH   1  65
HETATM   65  C   UNL     1      21.062  -2.886  14.146  1.00  0.00     0.195 C 
BRANCH  65  66
HETATM   66  O   UNL     1      20.615  -4.144  14.701  1.00  0.00    -0.320 OA
BRANCH  66  67
HETATM   67  C   UNL     1      21.597  -5.048  14.982  1.00  0.00     0.258 C 
HETATM   68  O   UNL     1      22.418  -5.459  14.170  1.00  0.00    -0.265 OA
BRANCH  67  69
HETATM   69  C   UNL     1      21.552  -5.443  16.445  1.00  0.00     0.111 C 
BRANCH  69  70
HETATM   70  C   UNL     1      22.963  -5.769  16.933  1.00  0.00     0.010 C 
BRANCH  70  71
HETATM   71  C   UNL     1      22.996  -6.173  18.401  1.00  0.00     0.000 C 
BRANCH  71  72
HETATM   72  C   UNL     1      24.426  -6.490  18.826  1.00  0.00     0.000 C 
BRANCH  72  73
HETATM   73  C   UNL     1      24.460  -6.895  20.291  1.00  0.00     0.000 C 
BRANCH  73  74
HETATM   74  C   UNL     1      25.884  -7.210  20.714  1.00  0.00     0.000 C 
BRANCH  74  75
HETATM   75  C   UNL     1      25.911  -7.611  22.177  1.00  0.00     0.000 C 
BRANCH  75  76
HETATM   76  C   UNL     1      27.333  -7.928  22.599  1.00  0.00     0.000 C 
BRANCH  76  77
HETATM   77  C   UNL     1      27.359  -8.326  24.062  1.00  0.00     0.000 C 
BRANCH  77  78
HETATM   78  C   UNL     1      28.781  -8.644  24.479  1.00  0.00     0.000 C 
BRANCH  78  79
HETATM   79  C   UNL     1      28.812  -9.041  25.939  1.00  0.00     0.000 C 
BRANCH  79  80
HETATM   80  C   UNL     1      30.237  -9.359  26.351  1.00  0.00     0.000 C 
BRANCH  80  81
HETATM   81  C   UNL     1      30.256  -9.756  27.810  1.00  0.00     0.000 C 
BRANCH  81  82
HETATM   82  C   UNL     1      31.672 -10.086  28.259  1.00  0.00     0.004 C 
BRANCH  82  83
HETATM   83  C   UNL     1      31.705 -10.489  29.736  1.00  0.00    -0.023 C 
HETATM   84  C   UNL     1      30.838 -11.722  29.992  1.00  0.00     0.009 C 
HETATM   85  C   UNL     1      33.143 -10.777  30.155  1.00  0.00     0.009 C 
ENDBRANCH  82  83
ENDBRANCH  81  82
ENDBRANCH  80  81
ENDBRANCH  79  80
ENDBRANCH  78  79
ENDBRANCH  77  78
ENDBRANCH  76  77
ENDBRANCH  75  76
ENDBRANCH  74  75
ENDBRANCH  73  74
ENDBRANCH  72  73
ENDBRANCH  71  72
ENDBRANCH  70  71
ENDBRANCH  69  70
ENDBRANCH  67  69
ENDBRANCH  66  67
ENDBRANCH  65  66
ENDBRANCH   1  65
TORSDOF 72
