REMARK  0 active torsions:
REMARK  status: ('A' for Active; 'I' for Inactive)
ROOT
HETATM    1  C   UNL     1       2.287  -0.177   0.156  1.00  0.00     0.042 C 
HETATM    2  C   UNL     1       3.694   0.200  -0.131  1.00  0.00     0.141 A 
HETATM    3  C   UNL     1       4.047   1.006  -1.350  1.00  0.00     0.199 A 
HETATM    4  O   UNL     1       4.238  -0.417  -1.303  1.00  0.00    -0.382 OA
ENDROOT
TORSDOF 0
