REMARK  25 active torsions:
REMARK  status: ('A' for Active; 'I' for Inactive)
REMARK    1  A    between atoms: C_2  and  C_3 
REMARK    2  A    between atoms: C_3  and  C_4 
REMARK    3  A    between atoms: C_4  and  C_5 
REMARK    4  A    between atoms: C_5  and  C_6 
REMARK    5  A    between atoms: C_6  and  C_7 
REMARK    6  A    between atoms: C_7  and  C_8 
REMARK    7  A    between atoms: C_8  and  C_9 
REMARK    8  A    between atoms: C_10  and  C_11 
REMARK    9  A    between atoms: C_11  and  C_12 
REMARK   10  A    between atoms: C_12  and  C_13 
REMARK   11  A    between atoms: C_13  and  C_14 
REMARK   12  A    between atoms: C_14  and  C_15 
REMARK   13  A    between atoms: C_15  and  C_16 
REMARK   14  A    between atoms: C_16  and  C_17 
REMARK   15  A    between atoms: C_17  and  C_18 
REMARK   16  A    between atoms: C_18  and  O_20 
REMARK   17  A    between atoms: C_23  and  C_24 
REMARK   18  A    between atoms: C_24  and  C_25 
REMARK   19  A    between atoms: C_25  and  C_26 
REMARK   20  A    between atoms: C_26  and  C_27 
REMARK   21  A    between atoms: C_27  and  C_28 
REMARK   22  A    between atoms: C_28  and  C_29 
REMARK       I    between atoms: C_29  and  N_31 
REMARK   23  A    between atoms: N_31  and  C_32 
REMARK   24  A    between atoms: C_32  and  C_33 
REMARK   25  A    between atoms: C_33  and  O_35 
ROOT
HETATM    1  K   UNL     3      -0.118   1.504   0.927  1.00  0.00     0.000 K 
ENDROOT
TORSDOF 25
