REMARK  2 active torsions:
REMARK  status: ('A' for Active; 'I' for Inactive)
REMARK    1  A    between atoms: C_3  and  O_4 
REMARK    2  A    between atoms: CA_6  and  C_7 
ROOT
HETATM    1  C   UNL     1      -1.618   0.625   0.006  1.00  0.00     0.044 C 
HETATM    2  C   UNL     1      -0.343   1.055   0.718  1.00  0.00     0.089 C 
HETATM    3  C   UNL     1       0.549  -0.126   0.477  1.00  0.00     0.152 C 
HETATM    4  N   UNL     1      -0.240  -1.243   0.396  1.00  0.00    -0.357 N 
HETATM    5  CA  UNL     1      -1.643  -0.897   0.162  1.00  0.00     0.185 C 
HETATM    6  H   UNL     1       0.112  -2.108   0.001  1.00  0.00     0.162 HD
ENDROOT
BRANCH   5   7
HETATM    7  C   UNL     1      -2.208  -1.437  -1.184  1.00  0.00     0.196 C 
HETATM    8  O   UNL     1      -1.303  -1.583  -2.080  1.00  0.00    -0.646 OA
HETATM    9  OXT UNL     1      -3.441  -1.614  -1.234  1.00  0.00    -0.646 OA
ENDBRANCH   5   7
BRANCH   3  10
HETATM   10  O   UNL     1       1.752  -0.079   0.277  1.00  0.00    -0.177 OA
HETATM   11  K   UNL     2       2.103   0.341  -2.210  1.00  0.00     0.000 K 
ENDBRANCH   3  10
TORSDOF 2
