REMARK  13 active torsions:
REMARK  status: ('A' for Active; 'I' for Inactive)
REMARK    1  A    between atoms: C_2  and  C_3 
REMARK    2  A    between atoms: C_3  and  C_4 
REMARK    3  A    between atoms: C_4  and  O_5 
REMARK    4  A    between atoms: O_5  and  C_6 
REMARK    5  A    between atoms: C_6  and  C_7 
REMARK    6  A    between atoms: C_7  and  O_8 
REMARK    7  A    between atoms: O_8  and  C_9 
REMARK    8  A    between atoms: C_9  and  C_10 
REMARK    9  A    between atoms: C_10  and  O_12 
REMARK   10  A    between atoms: O_12  and  C_13 
REMARK   11  A    between atoms: C_13  and  C_14 
REMARK   12  A    between atoms: C_14  and  C_15 
REMARK   13  A    between atoms: C_15  and  O_16 
ROOT
HETATM    1  C   UNL     1       8.752  -2.050   5.027  1.00  0.00     0.199 C 
ENDROOT
BRANCH   1   2
HETATM    2  O   UNL     1       8.269  -1.558   3.781  1.00  0.00    -0.387 OA
BRANCH   2   3
HETATM    3  C   UNL     1       6.847  -1.650   3.724  1.00  0.00     0.193 C 
BRANCH   3   4
HETATM    4  C   UNL     1       6.383  -1.156   2.367  1.00  0.00     0.193 C 
BRANCH   4   5
HETATM    5  O   UNL     1       4.962  -1.227   2.304  1.00  0.00    -0.389 OA
BRANCH   5   6
HETATM    6  C   UNL     1       4.484  -0.760   1.048  1.00  0.00     0.167 C 
BRANCH   6   7
HETATM    7  C   UNL     1       2.966  -0.836   1.050  1.00  0.00     0.026 C 
BRANCH   7   8
HETATM    8  C   UNL     1       2.392  -0.341  -0.272  1.00  0.00    -0.002 C 
HETATM    9  C   UNL     1       0.875  -0.415  -0.280  1.00  0.00     0.005 C 
ENDBRANCH   7   8
ENDBRANCH   6   7
ENDBRANCH   5   6
ENDBRANCH   4   5
ENDBRANCH   3   4
ENDBRANCH   2   3
ENDBRANCH   1   2
BRANCH   1  10
HETATM   10  C   UNL     1      10.287  -2.043   5.060  1.00  0.00     0.141 C 
HETATM   11  C   UNL     1      10.824  -0.623   4.881  1.00  0.00     0.042 C 
BRANCH  10  12
HETATM   12  O   UNL     1      10.785  -2.549   6.310  1.00  0.00    -0.384 OA
BRANCH  12  13
HETATM   13  C   UNL     1      10.532  -3.947   6.470  1.00  0.00     0.170 C 
BRANCH  13  14
HETATM   14  C   UNL     1      11.105  -4.437   7.792  1.00  0.00     0.052 C 
BRANCH  14  15
HETATM   15  C   UNL     1      10.689  -5.882   8.045  1.00  0.00     0.169 C 
BRANCH  15  16
HETATM   16  O   UNL     1      11.167  -6.694   6.974  1.00  0.00    -0.396 OA
HETATM   17  C   UNL     1      10.745  -8.044   7.098  1.00  0.00     0.201 C 
ENDBRANCH  15  16
ENDBRANCH  14  15
ENDBRANCH  13  14
ENDBRANCH  12  13
ENDBRANCH  10  12
ENDBRANCH   1  10
TORSDOF 13
