REMARK  19 active torsions:
REMARK  status: ('A' for Active; 'I' for Inactive)
REMARK    1  A    between atoms: C_2  and  C_4 
REMARK    2  A    between atoms: C_4  and  C_5 
REMARK    3  A    between atoms: C_5  and  C_6 
REMARK    4  A    between atoms: C_6  and  C_7 
REMARK    5  A    between atoms: C_7  and  C_8 
REMARK    6  A    between atoms: C_8  and  C_9 
REMARK    7  A    between atoms: C_9  and  C_10 
REMARK    8  A    between atoms: C_10  and  C_11 
REMARK    9  A    between atoms: C_11  and  C_12 
REMARK   10  A    between atoms: C_12  and  C_13 
REMARK   11  A    between atoms: C_13  and  C_14 
REMARK   12  A    between atoms: C_14  and  C_15 
REMARK   13  A    between atoms: C_15  and  C_16 
REMARK   14  A    between atoms: C_16  and  C_17 
REMARK   15  A    between atoms: C_17  and  C_18 
REMARK   16  A    between atoms: C_18  and  O_20 
REMARK   17  A    between atoms: O_20  and  C_21 
REMARK   18  A    between atoms: C_21  and  C_22 
REMARK   19  A    between atoms: C_22  and  O_24 
ROOT
HETATM    1  C   UNL     1      12.740   5.671  -4.277  1.00  0.00     0.000 C 
ENDROOT
BRANCH   1   2
HETATM    2  C   UNL     1      11.218   5.666  -4.274  1.00  0.00     0.000 C 
BRANCH   2   3
HETATM    3  C   UNL     1      10.695   4.531  -3.408  1.00  0.00     0.000 C 
BRANCH   3   4
HETATM    4  C   UNL     1       9.174   4.528  -3.404  1.00  0.00     0.000 C 
BRANCH   4   5
HETATM    5  C   UNL     1       8.652   3.393  -2.539  1.00  0.00     0.000 C 
BRANCH   5   6
HETATM    6  C   UNL     1       7.132   3.392  -2.540  1.00  0.00     0.000 C 
BRANCH   6   7
HETATM    7  C   UNL     1       6.608   2.260  -1.675  1.00  0.00     0.000 C 
BRANCH   7   8
HETATM    8  C   UNL     1       5.086   2.251  -1.673  1.00  0.00     0.000 C 
BRANCH   8   9
HETATM    9  C   UNL     1       4.585   1.109  -0.803  1.00  0.00     0.000 C 
BRANCH   9  10
HETATM   10  C   UNL     1       3.061   1.062  -0.775  1.00  0.00     0.004 C 
BRANCH  10  11
HETATM   11  C   UNL     1       2.525  -0.085   0.096  1.00  0.00    -0.023 C 
HETATM   12  C   UNL     1       0.997  -0.067   0.080  1.00  0.00     0.009 C 
HETATM   13  C   UNL     1       3.034  -1.453  -0.365  1.00  0.00     0.009 C 
ENDBRANCH  10  11
ENDBRANCH   9  10
ENDBRANCH   8   9
ENDBRANCH   7   8
ENDBRANCH   6   7
ENDBRANCH   5   6
ENDBRANCH   4   5
ENDBRANCH   3   4
ENDBRANCH   2   3
ENDBRANCH   1   2
BRANCH   1  14
HETATM   14  C   UNL     1      13.263   6.806  -5.144  1.00  0.00     0.000 C 
BRANCH  14  15
HETATM   15  C   UNL     1      14.788   6.827  -5.159  1.00  0.00     0.000 C 
BRANCH  15  16
HETATM   16  C   UNL     1      15.280   7.973  -6.033  1.00  0.00     0.010 C 
BRANCH  16  17
HETATM   17  C   UNL     1      16.801   8.047  -6.081  1.00  0.00     0.111 C 
BRANCH  17  18
HETATM   18  C   UNL     1      17.238   9.197  -6.955  1.00  0.00     0.258 C 
HETATM   19  O   UNL     1      16.490   9.942  -7.555  1.00  0.00    -0.265 OA
BRANCH  18  20
HETATM   20  O   UNL     1      18.602   9.205  -7.033  1.00  0.00    -0.319 OA
BRANCH  20  21
HETATM   21  C   UNL     1      19.090   9.777  -8.252  1.00  0.00     0.210 C 
BRANCH  21  22
HETATM   22  C   UNL     1      19.020  11.304  -8.255  1.00  0.00     0.138 C 
HETATM   23  C   UNL     1      19.838  11.916  -7.130  1.00  0.00     0.041 C 
BRANCH  22  24
HETATM   24  O   UNL     1      19.479  11.806  -9.508  1.00  0.00    -0.394 OA
HETATM   25  H   UNL     1      20.423  11.585  -9.594  1.00  0.00     0.210 HD
ENDBRANCH  22  24
ENDBRANCH  21  22
ENDBRANCH  20  21
ENDBRANCH  18  20
ENDBRANCH  17  18
ENDBRANCH  16  17
ENDBRANCH  15  16
ENDBRANCH  14  15
ENDBRANCH   1  14
TORSDOF 19
