REMARK  6 active torsions:
REMARK  status: ('A' for Active; 'I' for Inactive)
REMARK    1  A    between atoms: C_2  and  O_12 
REMARK    2  A    between atoms: C_3  and  O_11 
REMARK    3  A    between atoms: C_4  and  O_10 
REMARK    4  A    between atoms: C_5  and  C_7 
REMARK    5  A    between atoms: C_5  and  O_9 
REMARK    6  A    between atoms: C_7  and  O_8 
ROOT
HETATM    1  C   UNL     1       0.786   1.214  -0.046  1.00  0.00     0.206 C 
HETATM    2  C   UNL     1       1.473  -0.041   0.495  1.00  0.00     0.173 C 
HETATM    3  C   UNL     1       0.829  -1.300  -0.098  1.00  0.00     0.183 C 
HETATM    4  C   UNL     1      -0.689  -1.278   0.129  1.00  0.00     0.213 C 
HETATM    5  C   UNL     1      -1.322   0.055  -0.350  1.00  0.00     0.212 C 
HETATM    6  O   UNL     1      -0.627   1.189   0.189  1.00  0.00    -0.349 OA
ENDROOT
BRANCH   5   7
HETATM    7  C   UNL     1      -1.467   0.164  -1.887  1.00  0.00     0.235 C 
BRANCH   7   8
HETATM    8  O   UNL     1      -0.231   0.067  -2.592  1.00  0.00    -0.395 OA
HETATM    9  H   UNL     1      -0.259   0.742  -3.296  1.00  0.00     0.209 HD
ENDBRANCH   7   8
ENDBRANCH   5   7
BRANCH   5  10
HETATM   10  O   UNL     1      -2.655   0.119   0.182  1.00  0.00    -0.362 OA
HETATM   11  H   UNL     1      -2.591  -0.338   1.043  1.00  0.00     0.213 HD
ENDBRANCH   5  10
BRANCH   4  12
HETATM   12  O   UNL     1      -0.974  -1.418   1.553  1.00  0.00    -0.387 OA
HETATM   13  H   UNL     1      -0.360  -0.803   2.013  1.00  0.00     0.210 HD
ENDBRANCH   4  12
BRANCH   3  14
HETATM   14  O   UNL     1       1.405  -2.461   0.517  1.00  0.00    -0.390 OA
HETATM   15  H   UNL     1       1.230  -2.360   1.474  1.00  0.00     0.210 HD
ENDBRANCH   3  14
BRANCH   2  16
HETATM   16  O   UNL     1       1.312  -0.089   1.928  1.00  0.00    -0.391 OA
HETATM   17  H   UNL     1       1.620   0.767   2.283  1.00  0.00     0.210 HD
ENDBRANCH   2  16
TORSDOF 6
