REMARK  1 active torsions:
REMARK  status: ('A' for Active; 'I' for Inactive)
REMARK    1  A    between atoms: C_2  and  N_3 
ROOT
HETATM    1  N   UNL     1       3.156   0.982  -0.572  1.00  0.00    -0.329 N 
HETATM    2  C   UNL     1       4.386   0.797  -1.300  1.00  0.00     0.131 C 
HETATM    3  C   UNL     1       5.013   2.176  -1.324  1.00  0.00     0.029 C 
HETATM    4  C   UNL     1       3.823   3.120  -1.292  1.00  0.00     0.105 C 
HETATM    5  C   UNL     1       2.780   2.332  -0.538  1.00  0.00     0.223 C 
HETATM    6  O   UNL     1       1.767   2.810  -0.049  1.00  0.00    -0.273 OA
ENDROOT
BRANCH   1   7
HETATM    7  C   UNL     1       2.368  -0.029  -0.077  1.00  0.00     0.083 C 
HETATM    8  C   UNL     1       2.639  -1.334  -0.183  1.00  0.00     0.030 C 
ENDBRANCH   1   7
TORSDOF 1
