REMARK  4 active torsions:
REMARK  status: ('A' for Active; 'I' for Inactive)
REMARK    1  A    between atoms: C_9  and  O_25 
REMARK    2  A    between atoms: C_10  and  N_11 
REMARK    3  A    between atoms: N_13  and  C_15 
REMARK    4  A    between atoms: C_18  and  N_21 
ROOT
HETATM    1  N   UNL     1       1.369  -2.534   0.265  1.00  0.00    -0.297 N 
ATOM      2  HN  UNL     1       0.872  -3.114   0.941  1.00  0.00     0.187 HD
HETATM    3  N   UNL     1       2.259  -2.971  -0.494  1.00  0.00    -0.299 N 
ATOM      4  HN  UNL     1       2.728  -2.400  -1.197  1.00  0.00     0.187 HD
ENDROOT
BRANCH   1   5
HETATM    5  C   UNL     1       1.120  -1.148   0.090  1.00  0.00     0.092 A 
HETATM    6  C   UNL     1      -0.230  -0.696   0.034  1.00  0.00     0.005 A 
HETATM    7  C   UNL     1      -1.338  -1.577   0.039  1.00  0.00     0.014 A 
HETATM    8  C   UNL     1      -0.502   0.695  -0.020  1.00  0.00    -0.024 A 
HETATM    9  C   UNL     1      -2.654  -1.106   0.008  1.00  0.00     0.001 A 
HETATM   10  C   UNL     1      -2.898   0.261  -0.027  1.00  0.00     0.001 A 
HETATM   11  C   UNL     1      -1.829   1.155  -0.044  1.00  0.00     0.012 A 
HETATM   12  C   UNL     1       0.557   1.612  -0.034  1.00  0.00     0.015 A 
HETATM   13  C   UNL     1       1.879   1.176   0.012  1.00  0.00     0.040 A 
HETATM   14  C   UNL     1       2.155  -0.187   0.086  1.00  0.00     0.094 A 
BRANCH  14  15
HETATM   15  O   UNL     1       3.464  -0.584   0.193  1.00  0.00    -0.358 OA
HETATM   16  H   UNL     1       4.044   0.174   0.017  1.00  0.00     0.217 HD
ENDBRANCH  14  15
ENDBRANCH   1   5
BRANCH   3  17
HETATM   17  C   UNL     1       2.550  -4.342  -0.278  1.00  0.00     0.070 A 
HETATM   18  C   UNL     1       3.312  -5.046  -1.234  1.00  0.00     0.064 A 
HETATM   19  C   UNL     1       3.604  -6.408  -1.081  1.00  0.00     0.062 A 
HETATM   20 CL   UNL     1       3.924  -4.255  -2.649  1.00  0.00    -0.082 Cl
HETATM   21  C   UNL     1       3.142  -7.087   0.051  1.00  0.00     0.104 A 
HETATM   22  C   UNL     1       2.411  -6.411   1.033  1.00  0.00     0.038 A 
HETATM   23  C   UNL     1       2.129  -5.050   0.865  1.00  0.00     0.035 A 
BRANCH  21  24
HETATM   24  N   UNL     1       3.427  -8.518   0.212  1.00  0.00    -0.116 N 
HETATM   25  O   UNL     1       4.085  -9.075  -0.677  1.00  0.00    -0.532 OA
HETATM   26  O   UNL     1       2.989  -9.082   1.224  1.00  0.00    -0.532 OA
ENDBRANCH  21  24
ENDBRANCH   3  17
TORSDOF 4
