REMARK  6 active torsions:
REMARK  status: ('A' for Active; 'I' for Inactive)
REMARK    1  A    between atoms: C_9  and  N_15 
REMARK    2  A    between atoms: C_10  and  S_11 
REMARK    3  A    between atoms: S_11  and  O_12 
REMARK    4  A    between atoms: N_17  and  C_19 
REMARK    5  A    between atoms: C_21  and  C_29 
REMARK    6  A    between atoms: C_29  and  O_31 
ROOT
HETATM    1  N   UNL     1      -3.688   1.419  -0.018  1.00  0.00    -0.299 N 
ATOM      2  HN  UNL     1      -3.689   2.407  -0.272  1.00  0.00     0.187 HD
HETATM    3  N   UNL     1      -4.732   0.741   0.115  1.00  0.00    -0.296 N 
ATOM      4  HN  UNL     1      -4.746  -0.265   0.285  1.00  0.00     0.187 HD
ENDROOT
BRANCH   1   5
HETATM    5  C   UNL     1      -2.508   0.678   0.220  1.00  0.00     0.072 A 
HETATM    6  C   UNL     1      -2.445  -0.694  -0.069  1.00  0.00     0.033 A 
HETATM    7  C   UNL     1      -1.241  -1.383  -0.044  1.00  0.00     0.014 A 
HETATM    8  C   UNL     1      -0.048  -0.747   0.311  1.00  0.00    -0.024 A 
HETATM    9  C   UNL     1      -0.061   0.611   0.708  1.00  0.00     0.000 A 
HETATM   10  C   UNL     1       1.156  -1.465   0.233  1.00  0.00     0.012 A 
HETATM   11  C   UNL     1       1.195   1.142   1.143  1.00  0.00     0.014 A 
HETATM   12  C   UNL     1      -1.300   1.314   0.603  1.00  0.00     0.127 A 
HETATM   13  C   UNL     1       2.389   0.420   1.043  1.00  0.00     0.001 A 
HETATM   14  C   UNL     1       2.372  -0.879   0.565  1.00  0.00     0.001 A 
BRANCH  12  15
HETATM   15  S   UNL     1      -1.306   3.137   0.473  1.00  0.00     0.328 S 
HETATM   16  O   UNL     1      -1.920   3.626   1.679  1.00  0.00    -0.191 OA
HETATM   17  O   UNL     1       0.080   3.485   0.178  1.00  0.00    -0.191 OA
BRANCH  15  18
HETATM   18  O   UNL     1      -2.010   3.319  -0.808  1.00  0.00    -0.086 OA
HETATM   19 CA   UNL     2      -1.318   2.659  -2.608  1.00  0.00     0.000 Ca
ENDBRANCH  15  18
ENDBRANCH  12  15
ENDBRANCH   1   5
BRANCH   3  20
HETATM   20  C   UNL     1      -5.902   1.553  -0.001  1.00  0.00     0.110 A 
HETATM   21  C   UNL     1      -6.791   1.323  -1.114  1.00  0.00     0.217 A 
HETATM   22  C   UNL     1      -7.979   2.114  -1.097  1.00  0.00     0.090 A 
HETATM   23  O   UNL     1      -6.527   0.480  -2.053  1.00  0.00    -0.285 OA
HETATM   24  C   UNL     1      -8.245   3.070  -0.095  1.00  0.00     0.034 A 
HETATM   25  C   UNL     1      -7.356   3.288   0.955  1.00  0.00    -0.022 A 
HETATM   26  C   UNL     1      -7.636   4.260   1.932  1.00  0.00     0.012 A 
HETATM   27  C   UNL     1      -6.181   2.516   1.030  1.00  0.00     0.006 A 
HETATM   28  C   UNL     1      -6.762   4.486   2.993  1.00  0.00     0.001 A 
HETATM   29  C   UNL     1      -5.608   3.727   3.098  1.00  0.00     0.001 A 
HETATM   30  C   UNL     1      -5.333   2.749   2.141  1.00  0.00     0.015 A 
BRANCH  22  31
HETATM   31  C   UNL     1      -9.089   2.000  -2.127  1.00  0.00     0.180 C 
HETATM   32  O   UNL     1     -10.058   2.734  -2.170  1.00  0.00    -0.646 OA
BRANCH  31  33
HETATM   33  O   UNL     1      -8.923   0.975  -3.007  1.00  0.00    -0.773 OA
HETATM   34  H   UNL     1      -8.044   0.546  -2.791  1.00  0.00     0.167 HD
ENDBRANCH  31  33
ENDBRANCH  22  31
ENDBRANCH   3  20
TORSDOF 6
