REMARK  6 active torsions:
REMARK  status: ('A' for Active; 'I' for Inactive)
REMARK    1  A    between atoms: C_4  and  N_14 
REMARK    2  A    between atoms: C_5  and  O_12 
REMARK    3  A    between atoms: C_7  and  S_8 
REMARK    4  A    between atoms: N_16  and  C_18 
REMARK    5  A    between atoms: C_19  and  O_32 
REMARK    6  A    between atoms: C_26  and  S_28 
ROOT
HETATM    1 NA   UNL     2       0.584   2.211  -2.416  1.00  0.00     0.000 Na
ENDROOT
TORSDOF 6
