REMARK  5 active torsions:
REMARK  status: ('A' for Active; 'I' for Inactive)
REMARK    1  A    between atoms: C_3  and  O_17 
REMARK    2  A    between atoms: C_6  and  C_7 
REMARK    3  A    between atoms: C_8  and  C_9 
REMARK    4  A    between atoms: C_11  and  O_16 
REMARK    5  A    between atoms: C_13  and  O_15 
ROOT
HETATM    1  C   UNL     1      -5.622  -0.962  -0.083  1.00  0.00    -0.031 A 
HETATM    2  C   UNL     1      -6.306   0.102  -0.690  1.00  0.00     0.048 A 
HETATM    3  C   UNL     1      -7.700   0.109  -0.721  1.00  0.00     0.069 A 
HETATM    4  C   UNL     1      -8.436  -0.934  -0.172  1.00  0.00     0.073 A 
HETATM    5  C   UNL     1      -7.757  -1.997   0.409  1.00  0.00     0.069 A 
HETATM    6  C   UNL     1      -6.365  -2.021   0.455  1.00  0.00     0.048 A 
ENDROOT
BRANCH   1   7
HETATM    7  C   UNL     1      -4.151  -1.038  -0.051  1.00  0.00     0.012 C 
HETATM    8  C   UNL     1      -3.340   0.034  -0.031  1.00  0.00     0.012 C 
BRANCH   8   9
HETATM    9  C   UNL     1      -1.871  -0.024  -0.029  1.00  0.00    -0.036 A 
HETATM   10  C   UNL     1      -1.154  -1.062   0.581  1.00  0.00     0.014 A 
HETATM   11  C   UNL     1       0.245  -1.065   0.574  1.00  0.00     0.037 A 
HETATM   12  C   UNL     1       0.929  -0.020  -0.036  1.00  0.00     0.065 A 
HETATM   13  C   UNL     1       0.240   1.029  -0.629  1.00  0.00     0.037 A 
HETATM   14  C   UNL     1      -1.157   1.029  -0.620  1.00  0.00     0.014 A 
BRANCH  12  15
HETATM   15  O   UNL     1       2.292   0.012  -0.071  1.00  0.00    -0.361 OA
HETATM   16  H   UNL     1       2.630  -0.789   0.361  1.00  0.00     0.217 HD
ENDBRANCH  12  15
ENDBRANCH   8   9
ENDBRANCH   1   7
BRANCH   3  17
HETATM   17  O   UNL     1      -8.389   1.136  -1.298  1.00  0.00    -0.361 OA
HETATM   18  H   UNL     1      -7.752   1.785  -1.643  1.00  0.00     0.217 HD
ENDBRANCH   3  17
BRANCH   5  19
HETATM   19  O   UNL     1      -8.426  -3.056   0.952  1.00  0.00    -0.361 OA
HETATM   20  H   UNL     1      -9.380  -2.906   0.840  1.00  0.00     0.217 HD
ENDBRANCH   5  19
TORSDOF 5
