REMARK  12 active torsions:
REMARK  status: ('A' for Active; 'I' for Inactive)
REMARK    1  A    between atoms: C_3  and  C_10 
REMARK    2  A    between atoms: C_11  and  C_12 
REMARK    3  A    between atoms: C_13  and  C_14 
REMARK    4  A    between atoms: C_15  and  C_16 
REMARK    5  A    between atoms: C_17  and  C_18 
REMARK    6  A    between atoms: C_18  and  O_19 
REMARK    7  A    between atoms: O_19  and  C_20 
REMARK    8  A    between atoms: C_20  and  C_22 
REMARK    9  A    between atoms: C_23  and  C_25 
REMARK   10  A    between atoms: C_26  and  C_27 
REMARK   11  A    between atoms: C_28  and  C_30 
REMARK   12  A    between atoms: C_31  and  C_32 
ROOT
HETATM    1  O   UNL     1      -3.960  -0.121   0.102  1.00  0.00    -0.314 OA
ENDROOT
BRANCH   1   2
HETATM    2  C   UNL     1      -3.549  -1.365   0.730  1.00  0.00     0.207 C 
BRANCH   2   3
HETATM    3  C   UNL     1      -4.635  -2.319   1.135  1.00  0.00     0.006 C 
HETATM    4  C   UNL     1      -5.817  -2.206   1.773  1.00  0.00    -0.064 C 
HETATM    5  C   UNL     1      -6.621  -3.482   1.980  1.00  0.00     0.048 C 
BRANCH   4   6
HETATM    6  C   UNL     1      -6.459  -1.010   2.300  1.00  0.00     0.006 C 
HETATM    7  C   UNL     1      -5.875  -0.049   3.032  1.00  0.00     0.001 C 
BRANCH   7   8
HETATM    8  C   UNL     1      -6.604   1.027   3.689  1.00  0.00     0.007 C 
HETATM    9  C   UNL     1      -6.446   1.397   4.978  1.00  0.00    -0.062 C 
HETATM   10  C   UNL     1      -7.143   2.602   5.551  1.00  0.00     0.048 C 
BRANCH   9  11
HETATM   11  C   UNL     1      -5.604   0.681   5.926  1.00  0.00     0.007 C 
HETATM   12  C   UNL     1      -5.881  -0.565   6.356  1.00  0.00     0.009 C 
BRANCH  12  13
HETATM   13  C   UNL     1      -4.903  -1.363   7.085  1.00  0.00    -0.048 C 
HETATM   14  C   UNL     1      -4.477  -1.078   8.336  1.00  0.00    -0.077 C 
HETATM   15  C   UNL     1      -5.104  -0.044   9.239  1.00  0.00     0.044 C 
HETATM   16  C   UNL     1      -3.303  -1.795   8.981  1.00  0.00     0.034 C 
HETATM   17  C   UNL     1      -2.589  -2.813   8.098  1.00  0.00     0.005 C 
HETATM   18  C   UNL     1      -3.589  -3.526   7.208  1.00  0.00     0.014 C 
HETATM   19  C   UNL     1      -4.315  -2.533   6.274  1.00  0.00    -0.020 C 
HETATM   20  C   UNL     1      -5.410  -3.355   5.551  1.00  0.00     0.020 C 
HETATM   21  C   UNL     1      -3.325  -1.955   5.242  1.00  0.00     0.020 C 
ENDBRANCH  12  13
ENDBRANCH   9  11
ENDBRANCH   7   8
ENDBRANCH   4   6
ENDBRANCH   2   3
ENDBRANCH   1   2
BRANCH   1  22
HETATM   22  C   UNL     1      -3.305   0.954   0.600  1.00  0.00     0.283 C 
HETATM   23  O   UNL     1      -2.696   0.958   1.665  1.00  0.00    -0.260 OA
BRANCH  22  24
HETATM   24  C   UNL     1      -3.152   2.144  -0.276  1.00  0.00     0.089 C 
HETATM   25  C   UNL     1      -3.637   2.710  -1.404  1.00  0.00    -0.056 C 
HETATM   26  C   UNL     1      -4.776   2.303  -2.287  1.00  0.00     0.048 C 
BRANCH  25  27
HETATM   27  C   UNL     1      -2.945   3.881  -1.941  1.00  0.00     0.007 C 
HETATM   28  C   UNL     1      -1.637   3.844  -2.236  1.00  0.00     0.001 C 
BRANCH  28  29
HETATM   29  C   UNL     1      -0.971   4.858  -3.020  1.00  0.00     0.007 C 
HETATM   30  C   UNL     1       0.329   4.866  -3.367  1.00  0.00    -0.062 C 
HETATM   31  C   UNL     1       1.375   3.901  -2.862  1.00  0.00     0.048 C 
BRANCH  30  32
HETATM   32  C   UNL     1       0.772   5.904  -4.300  1.00  0.00     0.007 C 
HETATM   33  C   UNL     1       2.019   6.098  -4.757  1.00  0.00     0.009 C 
BRANCH  33  34
HETATM   34  C   UNL     1       2.354   7.223  -5.629  1.00  0.00    -0.048 C 
HETATM   35  C   UNL     1       2.185   8.515  -5.200  1.00  0.00    -0.077 C 
HETATM   36  C   UNL     1       2.414   9.690  -6.097  1.00  0.00     0.034 C 
HETATM   37  C   UNL     1       1.757   8.907  -3.807  1.00  0.00     0.044 C 
HETATM   38  C   UNL     1       2.567   9.346  -7.572  1.00  0.00     0.005 C 
HETATM   39  C   UNL     1       3.466   8.131  -7.743  1.00  0.00     0.014 C 
HETATM   40  C   UNL     1       2.900   6.873  -7.029  1.00  0.00    -0.020 C 
HETATM   41  C   UNL     1       4.054   5.842  -6.971  1.00  0.00     0.020 C 
HETATM   42  C   UNL     1       1.769   6.270  -7.896  1.00  0.00     0.020 C 
ENDBRANCH  33  34
ENDBRANCH  30  32
ENDBRANCH  28  29
ENDBRANCH  25  27
ENDBRANCH  22  24
ENDBRANCH   1  22
TORSDOF 12
