REMARK  5 active torsions:
REMARK  status: ('A' for Active; 'I' for Inactive)
REMARK    1  A    between atoms: C_3  and  C_10 
REMARK    2  A    between atoms: C_11  and  C_12 
REMARK    3  A    between atoms: C_13  and  C_14 
REMARK    4  A    between atoms: C_15  and  C_16 
REMARK    5  A    between atoms: C_17  and  C_18 
ROOT
HETATM    1  C   UNL     1       0.448  -2.447   0.047  1.00  0.00     0.009 C 
HETATM    2  C   UNL     1       1.155  -3.238   0.878  1.00  0.00     0.007 C 
ENDROOT
BRANCH   2   3
HETATM    3  C   UNL     1       1.081  -4.705   0.903  1.00  0.00    -0.062 C 
HETATM    4  C   UNL     1       0.786  -5.438   2.004  1.00  0.00     0.007 C 
HETATM    5  C   UNL     1       1.400  -5.414  -0.393  1.00  0.00     0.048 C 
BRANCH   4   6
HETATM    6  C   UNL     1       0.443  -4.892   3.306  1.00  0.00     0.001 C 
HETATM    7  C   UNL     1       0.095  -5.566   4.422  1.00  0.00     0.007 C 
BRANCH   7   8
HETATM    8  C   UNL     1      -0.294  -4.925   5.689  1.00  0.00    -0.059 C 
HETATM    9  C   UNL     1      -0.600  -5.549   6.847  1.00  0.00     0.048 C 
HETATM   10  C   UNL     1      -0.408  -3.412   5.751  1.00  0.00     0.048 C 
BRANCH   9  11
HETATM   11  C   UNL     1      -0.644  -6.988   7.200  1.00  0.00     0.259 C 
HETATM   12  O   UNL     1      -0.918  -7.349   8.338  1.00  0.00    -0.302 OA
ENDBRANCH   9  11
ENDBRANCH   7   8
ENDBRANCH   4   6
ENDBRANCH   2   3
BRANCH   1  13
HETATM   13  C   UNL     1       0.506  -0.974  -0.025  1.00  0.00    -0.048 C 
HETATM   14  C   UNL     1       1.638  -0.310  -0.373  1.00  0.00    -0.077 C 
HETATM   15  C   UNL     1       2.941  -0.958  -0.772  1.00  0.00     0.044 C 
HETATM   16  C   UNL     1       1.716   1.204  -0.466  1.00  0.00     0.034 C 
HETATM   17  C   UNL     1       0.530   1.955   0.118  1.00  0.00     0.005 C 
HETATM   18  C   UNL     1      -0.763   1.261  -0.268  1.00  0.00     0.014 C 
HETATM   19  C   UNL     1      -0.823  -0.211   0.236  1.00  0.00    -0.020 C 
HETATM   20  C   UNL     1      -2.027  -0.844  -0.499  1.00  0.00     0.020 C 
HETATM   21  C   UNL     1      -1.114  -0.199   1.752  1.00  0.00     0.020 C 
ENDBRANCH   1  13
TORSDOF 5
