REMARK  8 active torsions:
REMARK  status: ('A' for Active; 'I' for Inactive)
REMARK    1  A    between atoms: C_2  and  C_3 
REMARK    2  A    between atoms: C_3  and  O_5 
REMARK    3  A    between atoms: O_5  and  C_6 
REMARK    4  A    between atoms: C_6  and  C_7 
REMARK    5  A    between atoms: C_8  and  C_10 
REMARK    6  A    between atoms: C_11  and  C_12 
REMARK    7  A    between atoms: C_13  and  C_15 
REMARK    8  A    between atoms: C_16  and  C_17 
ROOT
HETATM    1  C   UNL     1      10.687   5.473   0.748  1.00  0.00     0.007 C 
HETATM    2  C   UNL     1      11.380   6.628   0.900  1.00  0.00    -0.062 C 
HETATM    3  C   UNL     1      10.738   7.995   1.024  1.00  0.00     0.048 C 
ENDROOT
BRANCH   2   4
HETATM    4  C   UNL     1      12.853   6.608   0.930  1.00  0.00     0.007 C 
HETATM    5  C   UNL     1      13.651   7.687   1.066  1.00  0.00     0.009 C 
BRANCH   5   6
HETATM    6  C   UNL     1      15.115   7.669   1.040  1.00  0.00    -0.048 C 
HETATM    7  C   UNL     1      15.801   7.243  -0.050  1.00  0.00    -0.077 C 
HETATM    8  C   UNL     1      17.312   7.149  -0.080  1.00  0.00     0.034 C 
HETATM    9  C   UNL     1      15.181   6.853  -1.372  1.00  0.00     0.044 C 
HETATM   10  C   UNL     1      17.977   7.295   1.281  1.00  0.00     0.005 C 
HETATM   11  C   UNL     1      17.350   8.451   2.040  1.00  0.00     0.014 C 
HETATM   12  C   UNL     1      15.831   8.235   2.296  1.00  0.00    -0.020 C 
HETATM   13  C   UNL     1      15.278   9.615   2.728  1.00  0.00     0.020 C 
HETATM   14  C   UNL     1      15.654   7.257   3.477  1.00  0.00     0.020 C 
ENDBRANCH   5   6
ENDBRANCH   2   4
BRANCH   1  15
HETATM   15  C   UNL     1       9.238   5.369   0.699  1.00  0.00     0.001 C 
HETATM   16  C   UNL     1       8.503   4.256   0.546  1.00  0.00     0.006 C 
BRANCH  16  17
HETATM   17  C   UNL     1       7.031   4.248   0.526  1.00  0.00    -0.064 C 
HETATM   18  C   UNL     1       6.353   3.092   0.373  1.00  0.00     0.006 C 
HETATM   19  C   UNL     1       6.317   5.570   0.700  1.00  0.00     0.048 C 
BRANCH  18  20
HETATM   20  C   UNL     1       4.855   2.936   0.359  1.00  0.00     0.206 C 
BRANCH  20  21
HETATM   21  O   UNL     1       4.289   3.358   1.609  1.00  0.00    -0.318 OA
BRANCH  21  22
HETATM   22  C   UNL     1       4.319   2.423   2.599  1.00  0.00     0.258 C 
HETATM   23  O   UNL     1       4.740   1.282   2.471  1.00  0.00    -0.265 OA
BRANCH  22  24
HETATM   24  C   UNL     1       3.743   3.002   3.864  1.00  0.00     0.106 C 
HETATM   25  C   UNL     1       3.787   1.986   4.993  1.00  0.00     0.015 C 
ENDBRANCH  22  24
ENDBRANCH  21  22
ENDBRANCH  20  21
ENDBRANCH  18  20
ENDBRANCH  16  17
ENDBRANCH   1  15
TORSDOF 8
