REMARK WARNING: 32 MAX_TORS EXCEEDED!!!
REMARK  46 active torsions:
REMARK  status: ('A' for Active; 'I' for Inactive)
REMARK    1  A    between atoms: C_3  and  O_78 
REMARK    2  A    between atoms: C_4  and  O_70 
REMARK    3  A    between atoms: C_5  and  O_62 
REMARK    4  A    between atoms: C_6  and  O_8 
REMARK    5  A    between atoms: O_8  and  C_9 
REMARK    6  A    between atoms: C_9  and  C_10 
REMARK    7  A    between atoms: C_11  and  O_54 
REMARK    8  A    between atoms: C_12  and  O_46 
REMARK    9  A    between atoms: C_13  and  O_38 
REMARK   10  A    between atoms: C_14  and  O_16 
REMARK   11  A    between atoms: O_16  and  C_17 
REMARK   12  A    between atoms: C_18  and  C_30 
REMARK   13  A    between atoms: C_22  and  O_29 
REMARK   14  A    between atoms: C_24  and  O_28 
REMARK   15  A    between atoms: C_32  and  O_37 
REMARK   16  A    between atoms: C_33  and  O_36 
REMARK   17  A    between atoms: O_38  and  C_39 
REMARK   18  A    between atoms: C_39  and  C_41 
REMARK   19  A    between atoms: C_41  and  C_42 
REMARK   20  A    between atoms: C_42  and  C_43 
REMARK   21  A    between atoms: C_43  and  O_45 
REMARK   22  A    between atoms: O_46  and  C_47 
REMARK   23  A    between atoms: C_47  and  C_49 
REMARK   24  A    between atoms: C_49  and  C_50 
REMARK   25  A    between atoms: C_50  and  C_51 
REMARK   26  A    between atoms: C_51  and  O_53 
REMARK   27  A    between atoms: O_54  and  C_55 
REMARK   28  A    between atoms: C_55  and  C_57 
REMARK   29  A    between atoms: C_57  and  C_58 
REMARK   30  A    between atoms: C_58  and  C_59 
REMARK   31  A    between atoms: C_59  and  O_61 
REMARK   32  A    between atoms: O_62  and  C_63 
REMARK   33  A    between atoms: C_63  and  C_65 
REMARK   34  A    between atoms: C_65  and  C_66 
REMARK   35  A    between atoms: C_66  and  C_67 
REMARK   36  A    between atoms: C_67  and  O_69 
REMARK   37  A    between atoms: O_70  and  C_71 
REMARK   38  A    between atoms: C_71  and  C_73 
REMARK   39  A    between atoms: C_73  and  C_74 
REMARK   40  A    between atoms: C_74  and  C_75 
REMARK   41  A    between atoms: C_75  and  O_77 
REMARK   42  A    between atoms: O_78  and  C_79 
REMARK   43  A    between atoms: C_79  and  C_81 
REMARK   44  A    between atoms: C_81  and  C_82 
REMARK   45  A    between atoms: C_82  and  C_83 
REMARK   46  A    between atoms: C_83  and  O_85 
ROOT
HETATM    1  C   UNL     1       3.401  -4.342  -3.664  1.00  0.00     0.180 C 
HETATM    2  C   UNL     1       2.831  -5.761  -3.931  1.00  0.00     0.195 C 
HETATM    3  C   UNL     1       2.466  -6.452  -2.619  1.00  0.00     0.198 C 
HETATM    4  C   UNL     1       3.626  -6.369  -1.599  1.00  0.00     0.219 C 
HETATM    5  C   UNL     1       3.881  -4.875  -1.339  1.00  0.00     0.299 C 
HETATM    6  O   UNL     1       4.354  -4.287  -2.570  1.00  0.00    -0.348 OA
ENDROOT
BRANCH   1   7
HETATM    7  C   UNL     1       2.284  -3.284  -3.459  1.00  0.00     0.205 C 
BRANCH   7   8
HETATM    8  O   UNL     1       1.451  -3.618  -2.336  1.00  0.00    -0.356 OA
BRANCH   8   9
HETATM    9  C   UNL     1       0.517  -2.589  -2.008  1.00  0.00     0.292 C 
HETATM   10  C   UNL     1      -0.211  -2.857  -0.634  1.00  0.00     0.219 C 
HETATM   11  C   UNL     1      -1.231  -1.698  -0.482  1.00  0.00     0.198 C 
HETATM   12  C   UNL     1      -2.185  -1.609  -1.674  1.00  0.00     0.192 C 
HETATM   13  C   UNL     1      -1.363  -1.397  -2.956  1.00  0.00     0.152 C 
HETATM   14  C   UNL     1      -0.750   0.005  -3.041  1.00  0.00     0.042 C 
HETATM   15  O   UNL     1      -0.378  -2.426  -3.103  1.00  0.00    -0.351 OA
BRANCH  10  16
HETATM   16  O   UNL     1      -0.835  -4.202  -0.530  1.00  0.00    -0.308 OA
BRANCH  16  17
HETATM   17  C   UNL     1      -1.353  -4.645   0.660  1.00  0.00     0.259 C 
HETATM   18  O   UNL     1      -1.437  -3.991   1.700  1.00  0.00    -0.265 OA
BRANCH  17  19
HETATM   19  C   UNL     1      -1.919  -6.045   0.684  1.00  0.00     0.121 C 
BRANCH  19  20
HETATM   20  C   UNL     1      -1.290  -6.832   1.848  1.00  0.00     0.119 C 
BRANCH  20  21
HETATM   21  C   UNL     1      -1.416  -8.328   2.049  1.00  0.00     0.139 C 
HETATM   22  O   UNL     1      -1.848  -9.155   1.271  1.00  0.00    -0.650 OA
BRANCH  21  23
HETATM   23  O   UNL     1      -0.895  -8.704   3.250  1.00  0.00    -0.776 OA
HETATM   24  H   UNL     1      -0.599  -7.962   3.814  1.00  0.00     0.167 HD
ENDBRANCH  21  23
ENDBRANCH  20  21
ENDBRANCH  19  20
ENDBRANCH  17  19
ENDBRANCH  16  17
ENDBRANCH  10  16
BRANCH  11  25
HETATM   25  O   UNL     1      -1.939  -1.885   0.768  1.00  0.00    -0.310 OA
BRANCH  25  26
HETATM   26  C   UNL     1      -2.547  -0.823   1.325  1.00  0.00     0.259 C 
HETATM   27  O   UNL     1      -2.984   0.155   0.702  1.00  0.00    -0.265 OA
BRANCH  26  28
HETATM   28  C   UNL     1      -2.566  -0.990   2.821  1.00  0.00     0.121 C 
BRANCH  28  29
HETATM   29  C   UNL     1      -1.167  -1.262   3.361  1.00  0.00     0.119 C 
BRANCH  29  30
HETATM   30  C   UNL     1      -0.115  -0.287   2.877  1.00  0.00     0.139 C 
HETATM   31  O   UNL     1      -0.030   0.152   1.741  1.00  0.00    -0.650 OA
BRANCH  30  32
HETATM   32  O   UNL     1       0.821  -0.004   3.802  1.00  0.00    -0.776 OA
HETATM   33  H   UNL     1       0.688  -0.479   4.649  1.00  0.00     0.167 HD
ENDBRANCH  30  32
ENDBRANCH  29  30
ENDBRANCH  28  29
ENDBRANCH  26  28
ENDBRANCH  25  26
ENDBRANCH  11  25
BRANCH  12  34
HETATM   34  O   UNL     1      -2.938  -2.847  -1.721  1.00  0.00    -0.311 OA
BRANCH  34  35
HETATM   35  C   UNL     1      -4.008  -2.867  -2.539  1.00  0.00     0.259 C 
HETATM   36  O   UNL     1      -4.331  -1.959  -3.296  1.00  0.00    -0.265 OA
BRANCH  35  37
HETATM   37  C   UNL     1      -4.738  -4.182  -2.441  1.00  0.00     0.121 C 
BRANCH  37  38
HETATM   38  C   UNL     1      -4.780  -4.718  -1.018  1.00  0.00     0.119 C 
BRANCH  38  39
HETATM   39  C   UNL     1      -5.395  -3.737  -0.057  1.00  0.00     0.139 C 
HETATM   40  O   UNL     1      -6.541  -3.323  -0.168  1.00  0.00    -0.650 OA
BRANCH  39  41
HETATM   41  O   UNL     1      -4.593  -3.334   0.951  1.00  0.00    -0.776 OA
HETATM   42  H   UNL     1      -3.655  -3.597   0.891  1.00  0.00     0.167 HD
ENDBRANCH  39  41
ENDBRANCH  38  39
ENDBRANCH  37  38
ENDBRANCH  35  37
ENDBRANCH  34  35
ENDBRANCH  12  34
ENDBRANCH   8   9
ENDBRANCH   7   8
ENDBRANCH   1   7
BRANCH   2  43
HETATM   43  O   UNL     1       3.708  -6.731  -4.558  1.00  0.00    -0.311 OA
BRANCH  43  44
HETATM   44  C   UNL     1       4.354  -6.497  -5.709  1.00  0.00     0.259 C 
HETATM   45  O   UNL     1       4.783  -5.422  -6.090  1.00  0.00    -0.265 OA
BRANCH  44  46
HETATM   46  C   UNL     1       4.379  -7.785  -6.491  1.00  0.00     0.121 C 
BRANCH  46  47
HETATM   47  C   UNL     1       5.152  -7.608  -7.785  1.00  0.00     0.119 C 
BRANCH  47  48
HETATM   48  C   UNL     1       6.620  -7.401  -7.496  1.00  0.00     0.139 C 
HETATM   49  O   UNL     1       7.195  -7.834  -6.513  1.00  0.00    -0.650 OA
BRANCH  48  50
HETATM   50  O   UNL     1       7.252  -6.688  -8.454  1.00  0.00    -0.776 OA
HETATM   51  H   UNL     1       6.666  -6.360  -9.162  1.00  0.00     0.167 HD
ENDBRANCH  48  50
ENDBRANCH  47  48
ENDBRANCH  46  47
ENDBRANCH  44  46
ENDBRANCH  43  44
ENDBRANCH   2  43
BRANCH   3  52
HETATM   52  O   UNL     1       2.191  -7.860  -2.803  1.00  0.00    -0.310 OA
BRANCH  52  53
HETATM   53  C   UNL     1       0.941  -8.254  -3.142  1.00  0.00     0.259 C 
HETATM   54  O   UNL     1       0.158  -7.595  -3.805  1.00  0.00    -0.265 OA
BRANCH  53  55
HETATM   55  C   UNL     1       0.639  -9.538  -2.369  1.00  0.00     0.121 C 
BRANCH  55  56
HETATM   56  C   UNL     1       0.785  -9.236  -0.873  1.00  0.00     0.119 C 
BRANCH  56  57
HETATM   57  C   UNL     1      -0.104  -8.068  -0.734  1.00  0.00     0.139 C 
HETATM   58  O   UNL     1      -1.258  -8.106  -1.145  1.00  0.00    -0.650 OA
BRANCH  57  59
HETATM   59  O   UNL     1       0.485  -6.937  -0.310  1.00  0.00    -0.776 OA
HETATM   60  H   UNL     1       1.378  -6.955   0.100  1.00  0.00     0.167 HD
ENDBRANCH  57  59
ENDBRANCH  56  57
ENDBRANCH  55  56
ENDBRANCH  53  55
ENDBRANCH  52  53
ENDBRANCH   3  52
BRANCH   5  61
HETATM   61  O   UNL     1       4.812  -4.685  -0.260  1.00  0.00    -0.311 OA
BRANCH  61  62
HETATM   62  C   UNL     1       4.319  -4.244   0.980  1.00  0.00     0.157 C 
HETATM   63  C   UNL     1       5.046  -3.408   1.747  1.00  0.00     0.124 C 
HETATM   64  O   UNL     1       4.734  -2.914   2.979  1.00  0.00    -0.306 OA
HETATM   65  C   UNL     1       3.480  -3.111   3.447  1.00  0.00     0.096 A 
HETATM   66  C   UNL     1       3.150  -2.342   4.568  1.00  0.00     0.075 A 
HETATM   67  C   UNL     1       2.589  -3.990   2.849  1.00  0.00     0.084 A 
HETATM   68  C   UNL     1       1.894  -2.469   5.121  1.00  0.00     0.071 A 
HETATM   69  C   UNL     1       1.008  -3.397   4.614  1.00  0.00     0.074 A 
HETATM   70  C   UNL     1       1.358  -4.134   3.480  1.00  0.00     0.085 A 
HETATM   71  C   UNL     1       2.995  -4.662   1.566  1.00  0.00     0.223 C 
HETATM   72  O   UNL     1       2.281  -5.478   0.990  1.00  0.00    -0.284 OA
BRANCH  63  73
HETATM   73  C   UNL     1       6.249  -2.772   1.260  1.00  0.00     0.004 C 
HETATM   74  C   UNL     1       6.096  -1.526   0.638  1.00  0.00     0.053 C 
HETATM   75  C   UNL     1       7.191  -0.942   0.039  1.00  0.00     0.099 C 
HETATM   76  C   UNL     1       8.426  -1.581   0.115  1.00  0.00     0.098 C 
HETATM   77  C   UNL     1       8.602  -2.753   0.850  1.00  0.00     0.040 C 
HETATM   78  C   UNL     1       7.500  -3.362   1.428  1.00  0.00     0.017 C 
BRANCH  75  79
HETATM   79  O   UNL     1       7.046   0.211  -0.673  1.00  0.00    -0.358 OA
HETATM   80  H   UNL     1       6.108   0.462  -0.674  1.00  0.00     0.217 HD
ENDBRANCH  75  79
BRANCH  76  81
HETATM   81  O   UNL     1       9.477  -1.126  -0.623  1.00  0.00    -0.358 OA
HETATM   82  H   UNL     1       9.574  -1.800  -1.320  1.00  0.00     0.217 HD
ENDBRANCH  76  81
ENDBRANCH  63  73
BRANCH  68  83
HETATM   83  O   UNL     1       1.441  -1.602   6.069  1.00  0.00    -0.361 OA
HETATM   84  H   UNL     1       2.194  -1.072   6.394  1.00  0.00     0.217 HD
ENDBRANCH  68  83
BRANCH  70  85
HETATM   85  O   UNL     1       0.419  -4.992   3.032  1.00  0.00    -0.360 OA
HETATM   86  H   UNL     1      -0.431  -4.496   2.987  1.00  0.00     0.217 HD
ENDBRANCH  70  85
ENDBRANCH  61  62
ENDBRANCH   5  61
BRANCH   4  87
HETATM   87  O   UNL     1       4.842  -7.023  -2.102  1.00  0.00    -0.308 OA
BRANCH  87  88
HETATM   88  C   UNL     1       4.944  -8.362  -1.891  1.00  0.00     0.259 C 
HETATM   89  O   UNL     1       4.087  -9.042  -1.334  1.00  0.00    -0.265 OA
BRANCH  88  90
HETATM   90  C   UNL     1       6.228  -8.993  -2.382  1.00  0.00     0.121 C 
BRANCH  90  91
HETATM   91  C   UNL     1       7.222  -8.094  -3.093  1.00  0.00     0.119 C 
BRANCH  91  92
HETATM   92  C   UNL     1       7.734  -7.005  -2.189  1.00  0.00     0.139 C 
HETATM   93  O   UNL     1       8.145  -7.201  -1.054  1.00  0.00    -0.650 OA
BRANCH  92  94
HETATM   94  O   UNL     1       7.715  -5.779  -2.752  1.00  0.00    -0.776 OA
HETATM   95  H   UNL     1       7.312  -5.750  -3.643  1.00  0.00     0.167 HD
ENDBRANCH  92  94
ENDBRANCH  91  92
ENDBRANCH  90  91
ENDBRANCH  88  90
ENDBRANCH  87  88
ENDBRANCH   4  87
TORSDOF 46
