REMARK  16 active torsions:
REMARK  status: ('A' for Active; 'I' for Inactive)
REMARK    1  A    between atoms: C_3  and  O_43 
REMARK    2  A    between atoms: C_4  and  O_42 
REMARK    3  A    between atoms: C_5  and  O_41 
REMARK    4  A    between atoms: C_6  and  O_8 
REMARK    5  A    between atoms: O_8  and  C_9 
REMARK    6  A    between atoms: C_9  and  C_10 
REMARK    7  A    between atoms: C_11  and  O_40 
REMARK    8  A    between atoms: C_12  and  O_39 
REMARK    9  A    between atoms: C_13  and  O_38 
REMARK   10  A    between atoms: C_14  and  O_16 
REMARK   11  A    between atoms: O_16  and  C_17 
REMARK   12  A    between atoms: C_18  and  C_30 
REMARK   13  A    between atoms: C_22  and  O_29 
REMARK   14  A    between atoms: C_24  and  O_28 
REMARK   15  A    between atoms: C_32  and  O_37 
REMARK   16  A    between atoms: C_33  and  O_36 
ROOT
HETATM    1  C   UNL     1       3.192  -4.331  -3.617  1.00  0.00     0.180 C 
HETATM    2  C   UNL     1       2.471  -5.680  -3.651  1.00  0.00     0.180 C 
HETATM    3  C   UNL     1       1.974  -6.088  -2.261  1.00  0.00     0.183 C 
HETATM    4  C   UNL     1       3.116  -6.097  -1.239  1.00  0.00     0.205 C 
HETATM    5  C   UNL     1       3.867  -4.743  -1.270  1.00  0.00     0.298 C 
HETATM    6  O   UNL     1       4.115  -4.179  -2.538  1.00  0.00    -0.348 OA
ENDROOT
BRANCH   5   7
HETATM    7  O   UNL     1       5.081  -4.779  -0.486  1.00  0.00    -0.311 OA
BRANCH   7   8
HETATM    8  C   UNL     1       6.155  -5.563  -0.910  1.00  0.00     0.157 C 
HETATM    9  C   UNL     1       7.008  -6.090  -0.004  1.00  0.00     0.124 C 
HETATM   10  O   UNL     1       8.102  -6.886  -0.313  1.00  0.00    -0.306 OA
HETATM   11  C   UNL     1       8.228  -7.384  -1.576  1.00  0.00     0.096 A 
HETATM   12  C   UNL     1       9.183  -8.376  -1.783  1.00  0.00     0.075 A 
HETATM   13  C   UNL     1       7.437  -6.955  -2.625  1.00  0.00     0.084 A 
HETATM   14  C   UNL     1       9.329  -8.925  -3.050  1.00  0.00     0.071 A 
HETATM   15  C   UNL     1       8.532  -8.514  -4.111  1.00  0.00     0.074 A 
HETATM   16  C   UNL     1       7.575  -7.535  -3.897  1.00  0.00     0.085 A 
HETATM   17  C   UNL     1       6.432  -5.931  -2.345  1.00  0.00     0.223 C 
HETATM   18  O   UNL     1       5.810  -5.502  -3.303  1.00  0.00    -0.284 OA
BRANCH   9  19
HETATM   19  C   UNL     1       6.935  -5.913   1.453  1.00  0.00     0.004 A 
HETATM   20  C   UNL     1       7.761  -4.955   2.058  1.00  0.00     0.053 A 
HETATM   21  C   UNL     1       8.010  -5.041   3.422  1.00  0.00     0.099 A 
HETATM   22  C   UNL     1       7.410  -6.039   4.191  1.00  0.00     0.098 A 
HETATM   23  C   UNL     1       6.523  -6.941   3.621  1.00  0.00     0.040 A 
HETATM   24  C   UNL     1       6.293  -6.885   2.244  1.00  0.00     0.017 A 
BRANCH  21  25
HETATM   25  O   UNL     1       8.904  -4.211   4.041  1.00  0.00    -0.358 OA
HETATM   26  H   UNL     1       9.298  -3.633   3.364  1.00  0.00     0.217 HD
ENDBRANCH  21  25
BRANCH  22  27
HETATM   27  O   UNL     1       7.737  -6.164   5.511  1.00  0.00    -0.358 OA
HETATM   28  H   UNL     1       8.439  -5.499   5.653  1.00  0.00     0.217 HD
ENDBRANCH  22  27
ENDBRANCH   9  19
BRANCH  14  29
HETATM   29  O   UNL     1      10.246  -9.895  -3.305  1.00  0.00    -0.361 OA
HETATM   30  H   UNL     1      10.726 -10.105  -2.488  1.00  0.00     0.217 HD
ENDBRANCH  14  29
BRANCH  16  31
HETATM   31  O   UNL     1       6.753  -7.187  -4.932  1.00  0.00    -0.360 OA
HETATM   32  H   UNL     1       6.937  -7.732  -5.712  1.00  0.00     0.217 HD
ENDBRANCH  16  31
ENDBRANCH   7   8
ENDBRANCH   5   7
BRANCH   4  33
HETATM   33  O   UNL     1       3.966  -7.236  -1.483  1.00  0.00    -0.388 OA
HETATM   34  H   UNL     1       4.346  -7.110  -2.372  1.00  0.00     0.210 HD
ENDBRANCH   4  33
BRANCH   3  35
HETATM   35  O   UNL     1       1.382  -7.391  -2.333  1.00  0.00    -0.390 OA
HETATM   36  H   UNL     1       2.126  -7.981  -2.619  1.00  0.00     0.210 HD
ENDBRANCH   3  35
BRANCH   1  37
HETATM   37  C   UNL     1       2.293  -3.104  -3.623  1.00  0.00     0.205 C 
BRANCH  37  38
HETATM   38  O   UNL     1       3.189  -1.987  -3.615  1.00  0.00    -0.356 OA
BRANCH  38  39
HETATM   39  C   UNL     1       2.538  -0.742  -3.476  1.00  0.00     0.291 C 
HETATM   40  C   UNL     1       3.636   0.335  -3.451  1.00  0.00     0.204 C 
HETATM   41  C   UNL     1       2.951   1.696  -3.351  1.00  0.00     0.183 C 
HETATM   42  C   UNL     1       2.050   1.757  -2.102  1.00  0.00     0.178 C 
HETATM   43  C   UNL     1       1.124   0.526  -2.001  1.00  0.00     0.152 C 
HETATM   44  C   UNL     1      -0.100   0.597  -2.905  1.00  0.00     0.042 C 
HETATM   45  O   UNL     1       1.822  -0.706  -2.242  1.00  0.00    -0.351 OA
BRANCH  40  46
HETATM   46  O   UNL     1       4.487   0.143  -2.292  1.00  0.00    -0.388 OA
HETATM   47  H   UNL     1       4.550  -0.832  -2.186  1.00  0.00     0.210 HD
ENDBRANCH  40  46
BRANCH  41  48
HETATM   48  O   UNL     1       3.933   2.735  -3.318  1.00  0.00    -0.390 OA
HETATM   49  H   UNL     1       4.482   2.542  -2.531  1.00  0.00     0.210 HD
ENDBRANCH  41  48
BRANCH  42  50
HETATM   50  O   UNL     1       2.866   1.812  -0.917  1.00  0.00    -0.390 OA
HETATM   51  H   UNL     1       3.440   1.017  -0.934  1.00  0.00     0.210 HD
ENDBRANCH  42  50
ENDBRANCH  38  39
ENDBRANCH  37  38
ENDBRANCH   1  37
BRANCH   2  52
HETATM   52  O   UNL     1       3.357  -6.718  -4.131  1.00  0.00    -0.390 OA
HETATM   53  H   UNL     1       4.267  -6.347  -4.196  1.00  0.00     0.210 HD
ENDBRANCH   2  52
TORSDOF 16
