REMARK  11 active torsions:
REMARK  status: ('A' for Active; 'I' for Inactive)
REMARK    1  A    between atoms: C_1  and  C_2 
REMARK    2  A    between atoms: C_1  and  C_9 
REMARK    3  A    between atoms: C_2  and  C_3 
REMARK    4  A    between atoms: C_3  and  C_4 
REMARK    5  A    between atoms: C_4  and  C_5 
REMARK    6  A    between atoms: C_5  and  C_6 
REMARK    7  A    between atoms: C_6  and  O_8 
REMARK    8  A    between atoms: C_9  and  C_10 
REMARK    9  A    between atoms: C_10  and  C_11 
REMARK   10  A    between atoms: C_11  and  C_12 
REMARK   11  A    between atoms: C_12  and  O_14 
ROOT
HETATM    1  C   UNL     1       1.090  -0.020   0.103  1.00  0.00     0.000 C 
ENDROOT
BRANCH   1   2
HETATM    2  C   UNL     1       0.550  -1.350  -0.430  1.00  0.00     0.000 C 
BRANCH   2   3
HETATM    3  C   UNL     1       0.971  -2.553   0.416  1.00  0.00     0.001 C 
BRANCH   3   4
HETATM    4  C   UNL     1       0.395  -3.854  -0.141  1.00  0.00     0.010 C 
BRANCH   4   5
HETATM    5  C   UNL     1       0.849  -5.056   0.685  1.00  0.00     0.110 C 
BRANCH   5   6
HETATM    6  C   UNL     1       0.302  -6.350   0.133  1.00  0.00     0.139 C 
HETATM    7  O   UNL     1      -0.403  -6.456  -0.858  1.00  0.00    -0.650 OA
BRANCH   6   8
HETATM    8  O   UNL     1       0.686  -7.423   0.863  1.00  0.00    -0.776 OA
HETATM    9  H   UNL     1       1.247  -7.197   1.628  1.00  0.00     0.167 HD
ENDBRANCH   6   8
ENDBRANCH   5   6
ENDBRANCH   4   5
ENDBRANCH   3   4
ENDBRANCH   2   3
ENDBRANCH   1   2
BRANCH   1  10
HETATM   10  C   UNL     1       2.619   0.053   0.103  1.00  0.00     0.001 C 
BRANCH  10  11
HETATM   11  C   UNL     1       3.111   1.402   0.622  1.00  0.00     0.010 C 
BRANCH  11  12
HETATM   12  C   UNL     1       4.637   1.456   0.653  1.00  0.00     0.110 C 
BRANCH  12  13
HETATM   13  C   UNL     1       5.138   2.778   1.184  1.00  0.00     0.139 C 
HETATM   14  O   UNL     1       4.435   3.701   1.563  1.00  0.00    -0.650 OA
BRANCH  13  15
HETATM   15  O   UNL     1       6.490   2.844   1.204  1.00  0.00    -0.776 OA
HETATM   16  H   UNL     1       6.928   2.038   0.873  1.00  0.00     0.167 HD
ENDBRANCH  13  15
ENDBRANCH  12  13
ENDBRANCH  11  12
ENDBRANCH  10  11
ENDBRANCH   1  10
TORSDOF 11
