REMARK  5 active torsions:
REMARK  status: ('A' for Active; 'I' for Inactive)
REMARK    1  A    between atoms: C_1  and  CA_2 
REMARK    2  A    between atoms: C_1  and  O_7 
REMARK    3  A    between atoms: CA_2  and  C_3 
REMARK    4  A    between atoms: CA_2  and  N_6 
REMARK    5  A    between atoms: C_3  and  O_5 
ROOT
HETATM    1  CA  UNL     1       0.451  -1.239   0.983  1.00  0.00     0.337 C 
ENDROOT
BRANCH   1   2
HETATM    2  C   UNL     1       1.070  -0.068   0.212  1.00  0.00     0.210 C 
BRANCH   2   3
HETATM    3  O   UNL     1       2.502  -0.129   0.310  1.00  0.00    -0.398 OA
HETATM    4  H   UNL     1       2.831   0.733  -0.013  1.00  0.00     0.209 HD
ENDBRANCH   2   3
ENDBRANCH   1   2
BRANCH   1   5
HETATM    5  C   UNL     1       0.880  -1.170   2.456  1.00  0.00     0.176 C 
HETATM    6  O   UNL     1       0.096  -1.156   3.400  1.00  0.00    -0.648 OA
BRANCH   5   7
HETATM    7  O   UNL     1       2.222  -1.175   2.640  1.00  0.00    -0.775 OA
HETATM    8  H   UNL     1       2.693  -1.068   1.778  1.00  0.00     0.167 HD
ENDBRANCH   5   7
ENDBRANCH   1   5
BRANCH   1   9
HETATM    9  N   UNL     1      -1.024  -1.221   0.872  1.00  0.00     0.095 N 
HETATM   10  H1  UNL     1      -1.374  -0.405   1.380  1.00  0.00     0.314 HD
HETATM   11  H2  UNL     1      -1.381  -2.003   1.437  1.00  0.00     0.314 HD
ENDBRANCH   1   9
TORSDOF 5
