REMARK  5 active torsions:
REMARK  status: ('A' for Active; 'I' for Inactive)
REMARK    1  A    between atoms: SI_2  and  O_4 
REMARK    2  A    between atoms: SI_2  and  O_5 
REMARK    3  A    between atoms: O_5  and  C_6 
REMARK    4  A    between atoms: C_6  and  C_8 
REMARK    5  A    between atoms: C_13  and  O_14 
ROOT
HETATM    1  C   UNL     1       5.414  -0.826   3.149  1.00  0.00     0.075 A 
HETATM    2  C   UNL     1       6.611  -0.280   3.641  1.00  0.00     0.020 A 
HETATM    3  C   UNL     1       7.064  -0.596   4.922  1.00  0.00     0.001 A 
HETATM    4  C   UNL     1       6.324  -1.462   5.722  1.00  0.00     0.003 A 
HETATM    5  C   UNL     1       5.131  -2.010   5.246  1.00  0.00     0.037 A 
HETATM    6  C   UNL     1       4.678  -1.699   3.959  1.00  0.00     0.082 A 
ENDROOT
BRANCH   1   7
HETATM    7  C   UNL     1       5.054  -0.481   1.752  1.00  0.00     0.325 C 
HETATM    8  O   UNL     1       5.914  -0.271   0.907  1.00  0.00    -0.257 OA
BRANCH   7   9
HETATM    9  O   UNL     1       3.720  -0.343   1.586  1.00  0.00    -0.144 OA
BRANCH   9  10
HETATM   10 SI   UNL     1       3.037   0.068   0.122  1.00  0.00     0.000 Si
HETATM   11  C   UNL     1       3.455  -1.192  -1.207  1.00  0.00     0.000 C 
HETATM   12  C   UNL     1       3.649   1.747  -0.460  1.00  0.00     0.000 C 
BRANCH  10  13
HETATM   13  O   UNL     1       1.376   0.136   0.321  1.00  0.00    -0.253 OA
HETATM   14  H   UNL     1       0.865   0.405  -0.458  1.00  0.00     0.253 HD
ENDBRANCH  10  13
ENDBRANCH   9  10
ENDBRANCH   7   9
ENDBRANCH   1   7
BRANCH   6  15
HETATM   15  O   UNL     1       3.539  -2.294   3.497  1.00  0.00    -0.360 OA
HETATM   16  H   UNL     1       3.108  -2.779   4.220  1.00  0.00     0.217 HD
ENDBRANCH   6  15
TORSDOF 5
