REMARK  10 active torsions:
REMARK  status: ('A' for Active; 'I' for Inactive)
REMARK    1  A    between atoms: C_1  and  C_2 
REMARK    2  A    between atoms: C_1  and  O_13 
REMARK    3  A    between atoms: C_2  and  C_3 
REMARK    4  A    between atoms: C_2  and  O_12 
REMARK    5  A    between atoms: C_3  and  C_4 
REMARK    6  A    between atoms: C_3  and  O_11 
REMARK    7  A    between atoms: C_4  and  C_5 
REMARK    8  A    between atoms: C_4  and  O_10 
REMARK    9  A    between atoms: C_5  and  C_6 
REMARK   10  A    between atoms: C_5  and  O_9 
ROOT
HETATM    1  C   UNL     1       0.777  -2.231  -0.447  1.00  0.00     0.057 C 
ENDROOT
BRANCH   1   2
HETATM    2  C   UNL     1       0.361  -0.803  -0.890  1.00  0.00     0.148 C 
BRANCH   2   3
HETATM    3  C   UNL     1       1.015   0.315  -0.055  1.00  0.00     0.196 C 
BRANCH   3   4
HETATM    4  O   UNL     1       2.447   0.290  -0.074  1.00  0.00    -0.398 OA
HETATM    5  H   UNL     1       2.687   0.291  -1.031  1.00  0.00     0.209 HD
ENDBRANCH   3   4
ENDBRANCH   2   3
BRANCH   2   6
HETATM    6  O   UNL     1      -1.054  -0.639  -0.770  1.00  0.00    -0.393 OA
HETATM    7  H   UNL     1      -1.498  -1.317  -1.309  1.00  0.00     0.210 HD
ENDBRANCH   2   6
ENDBRANCH   1   2
BRANCH   1   8
HETATM    8  C   UNL     1       0.318  -3.340  -1.434  1.00  0.00     0.164 C 
BRANCH   8   9
HETATM    9  C   UNL     1       0.695  -3.196  -2.915  1.00  0.00     0.247 C 
BRANCH   9  10
HETATM   10  C   UNL     1       2.222  -3.062  -3.116  1.00  0.00     0.205 C 
HETATM   11  O   UNL     1       2.740  -3.997  -3.788  1.00  0.00    -0.646 OA
HETATM   12  O   UNL     1       2.762  -2.075  -2.531  1.00  0.00    -0.646 OA
ENDBRANCH   9  10
BRANCH   9  13
HETATM   13  O   UNL     1       0.220  -4.381  -3.610  1.00  0.00    -0.382 OA
HETATM   14  H   UNL     1       1.029  -4.695  -4.090  1.00  0.00     0.210 HD
ENDBRANCH   9  13
ENDBRANCH   8   9
BRANCH   8  15
HETATM   15  O   UNL     1       0.767  -4.614  -0.935  1.00  0.00    -0.392 OA
HETATM   16  H   UNL     1       0.774  -5.205  -1.718  1.00  0.00     0.210 HD
ENDBRANCH   8  15
ENDBRANCH   1   8
BRANCH   1  17
HETATM   17  O   UNL     1       2.188  -2.322  -0.152  1.00  0.00     0.000 OA
HETATM   18  H   UNL     1       2.625  -2.311  -1.053  1.00  0.00     0.000 HD
HETATM   19 NA   UNL     2       3.286  -1.282   1.315  1.00  0.00     0.000 Na
ENDBRANCH   1  17
TORSDOF 10
