REMARK  2 active torsions:
REMARK  status: ('A' for Active; 'I' for Inactive)
REMARK    1  A    between atoms: C_4  and  C_7 
REMARK    2  A    between atoms: C_7  and  O_8 
ROOT
HETATM    1  C   UNL     1       1.492  -0.269   0.500  1.00  0.00     0.000 A 
HETATM    2  C   UNL     1       0.621  -1.358   0.429  1.00  0.00     0.001 A 
HETATM    3  C   UNL     1      -0.743  -1.141   0.223  1.00  0.00     0.017 A 
HETATM    4  C   UNL     1      -1.240   0.156   0.073  1.00  0.00     0.042 A 
HETATM    5  C   UNL     1      -0.357   1.247   0.187  1.00  0.00     0.017 A 
HETATM    6  C   UNL     1       1.002   1.030   0.404  1.00  0.00     0.001 A 
ENDROOT
BRANCH   4   7
HETATM    7  C   UNL     1      -2.655   0.372  -0.379  1.00  0.00     0.323 C 
HETATM    8  O   UNL     1      -3.534  -0.472  -0.068  1.00  0.00    -0.257 OA
BRANCH   7   9
HETATM    9  O   UNL     1      -2.777   1.273  -1.280  1.00  0.00    -0.144 OA
HETATM   10 NA   UNL     2      -1.847   0.791  -2.954  1.00  0.00     0.000 Na
ENDBRANCH   7   9
ENDBRANCH   4   7
TORSDOF 2
