REMARK  2 active torsions:
REMARK  status: ('A' for Active; 'I' for Inactive)
REMARK    1  A    between atoms: CA_6  and  C_7 
REMARK    2  A    between atoms: C_7  and  O_8 
ROOT
HETATM    1  C   UNL     1      -1.606   0.831  -0.158  1.00  0.00     0.045 C 
HETATM    2  C   UNL     1      -0.234   1.327   0.292  1.00  0.00     0.105 C 
HETATM    3  C   UNL     1       0.557   0.055   0.269  1.00  0.00     0.218 C 
HETATM    4  O   UNL     1       1.679  -0.131  -0.175  1.00  0.00    -0.274 OA
HETATM    5  N   UNL     1      -0.286  -0.949   0.688  1.00  0.00    -0.347 N 
HETATM    6  CA  UNL     1      -1.641  -0.657   0.212  1.00  0.00     0.187 C 
HETATM    7  H   UNL     1       0.033  -1.908   0.627  1.00  0.00     0.163 HD
ENDROOT
BRANCH   6   8
HETATM    8  C   UNL     1      -1.972  -1.422  -1.110  1.00  0.00     0.312 C 
HETATM    9  OXT UNL     1      -3.176  -1.646  -1.351  1.00  0.00    -0.260 OA
BRANCH   8  10
HETATM   10  O   UNL     1      -0.930  -1.725  -1.794  1.00  0.00    -0.148 OA
HETATM   11 NA   UNL     2       1.011  -1.507  -2.144  1.00  0.00     0.000 Na
ENDBRANCH   8  10
ENDBRANCH   6   8
TORSDOF 2
