REMARK  5 active torsions:
REMARK  status: ('A' for Active; 'I' for Inactive)
REMARK    1  A    between atoms: C_1  and  C_2 
REMARK    2  A    between atoms: C_1  and  N_5 
REMARK    3  A    between atoms: C_2  and  O_4 
REMARK    4  A    between atoms: N_5  and  C_6 
REMARK    5  A    between atoms: C_6  and  O_7 
ROOT
HETATM    1  C   UNL     1       1.412   0.152  -0.101  1.00  0.00     0.385 C 
ENDROOT
BRANCH   1   2
HETATM    2  C   UNL     1       0.542   1.086   0.769  1.00  0.00     0.317 C 
HETATM    3  O   UNL     1       1.007   2.193   1.096  1.00  0.00    -0.261 OA
BRANCH   2   4
HETATM    4  O   UNL     1      -0.610   0.556   1.002  1.00  0.00    -0.148 OA
HETATM    5 NA   UNL     2      -1.353  -1.063   0.187  1.00  0.00     0.000 Na
ENDBRANCH   2   4
ENDBRANCH   1   2
BRANCH   1   6
HETATM    6  N   UNL     1       2.850   0.445  -0.048  1.00  0.00     0.115 N 
HETATM    7  H   UNL     1       2.928   1.469  -0.114  1.00  0.00     0.319 HD
BRANCH   6   8
HETATM    8  C   UNL     1       3.394   0.098   1.248  1.00  0.00     0.435 C 
BRANCH   8   9
HETATM    9  O   UNL     1       4.775  -0.062   1.045  1.00  0.00    -0.373 OA
HETATM   10  H   UNL     1       4.823  -0.141   0.076  1.00  0.00     0.211 HD
ENDBRANCH   8   9
ENDBRANCH   6   8
ENDBRANCH   1   6
TORSDOF 5
