REMARK  23 active torsions:
REMARK  status: ('A' for Active; 'I' for Inactive)
REMARK    1  A    between atoms: C_2  and  C_3 
REMARK    2  A    between atoms: C_3  and  C_4 
REMARK    3  A    between atoms: C_4  and  C_5 
REMARK    4  A    between atoms: C_5  and  C_6 
REMARK    5  A    between atoms: C_6  and  C_7 
REMARK    6  A    between atoms: C_7  and  C_8 
REMARK    7  A    between atoms: C_8  and  C_9 
REMARK    8  A    between atoms: C_9  and  C_10 
REMARK    9  A    between atoms: C_10  and  C_11 
REMARK   10  A    between atoms: C_11  and  C_12 
REMARK   11  A    between atoms: C_12  and  C_13 
REMARK   12  A    between atoms: C_13  and  C_14 
REMARK   13  A    between atoms: C_14  and  C_15 
REMARK   14  A    between atoms: C_15  and  C_16 
REMARK   15  A    between atoms: C_16  and  C_17 
REMARK   16  A    between atoms: C_17  and  C_18 
REMARK   17  A    between atoms: C_18  and  O_20 
REMARK   18  A    between atoms: O_20  and  C_21 
REMARK   19  A    between atoms: C_21  and  C_22 
REMARK   20  A    between atoms: C_22  and  C_23 
REMARK   21  A    between atoms: C_22  and  O_30 
REMARK   22  A    between atoms: C_24  and  O_29 
REMARK   23  A    between atoms: C_25  and  O_28 
ROOT
HETATM    1  C   UNL     1      17.243   6.567  -6.704  1.00  0.00     0.111 C 
ENDROOT
BRANCH   1   2
HETATM    2  C   UNL     1      16.641   7.870  -6.187  1.00  0.00     0.010 C 
BRANCH   2   3
HETATM    3  C   UNL     1      15.119   7.849  -6.183  1.00  0.00     0.000 C 
BRANCH   3   4
HETATM    4  C   UNL     1      14.595   6.730  -5.291  1.00  0.00     0.000 C 
BRANCH   4   5
HETATM    5  C   UNL     1      13.081   6.718  -5.286  1.00  0.00     0.000 C 
BRANCH   5   6
HETATM    6  C   UNL     1      12.572   5.595  -4.401  1.00  0.00     0.000 C 
BRANCH   6   7
HETATM    7  C   UNL     1      11.054   5.590  -4.397  1.00  0.00     0.000 C 
BRANCH   7   8
HETATM    8  C   UNL     1      10.544   4.468  -3.512  1.00  0.00     0.000 C 
BRANCH   8   9
HETATM    9  C   UNL     1       9.027   4.463  -3.508  1.00  0.00     0.000 C 
BRANCH   9  10
HETATM   10  C   UNL     1       8.516   3.341  -2.623  1.00  0.00     0.000 C 
BRANCH  10  11
HETATM   11  C   UNL     1       6.998   3.337  -2.620  1.00  0.00     0.000 C 
BRANCH  11  12
HETATM   12  C   UNL     1       6.487   2.215  -1.734  1.00  0.00     0.000 C 
BRANCH  12  13
HETATM   13  C   UNL     1       4.968   2.208  -1.731  1.00  0.00     0.000 C 
BRANCH  13  14
HETATM   14  C   UNL     1       4.456   1.087  -0.844  1.00  0.00     0.000 C 
BRANCH  14  15
HETATM   15  C   UNL     1       2.936   1.078  -0.840  1.00  0.00    -0.000 C 
BRANCH  15  16
HETATM   16  C   UNL     1       2.414  -0.042   0.049  1.00  0.00    -0.005 C 
HETATM   17  C   UNL     1       0.898  -0.048   0.051  1.00  0.00     0.005 C 
ENDBRANCH  15  16
ENDBRANCH  14  15
ENDBRANCH  13  14
ENDBRANCH  12  13
ENDBRANCH  11  12
ENDBRANCH  10  11
ENDBRANCH   9  10
ENDBRANCH   8   9
ENDBRANCH   7   8
ENDBRANCH   6   7
ENDBRANCH   5   6
ENDBRANCH   4   5
ENDBRANCH   3   4
ENDBRANCH   2   3
ENDBRANCH   1   2
BRANCH   1  18
HETATM   18  C   UNL     1      18.745   6.646  -6.679  1.00  0.00     0.258 C 
HETATM   19  O   UNL     1      19.371   7.486  -7.325  1.00  0.00    -0.265 OA
BRANCH  18  20
HETATM   20  O   UNL     1      19.285   5.643  -5.928  1.00  0.00    -0.319 OA
BRANCH  20  21
HETATM   21  C   UNL     1      20.628   5.220  -6.276  1.00  0.00     0.213 C 
BRANCH  21  22
HETATM   22  C   UNL     1      21.714   6.183  -5.794  1.00  0.00     0.174 C 
BRANCH  22  23
HETATM   23  C   UNL     1      21.704   6.353  -4.273  1.00  0.00     0.183 C 
HETATM   24  C   UNL     1      22.791   7.322  -3.797  1.00  0.00     0.180 C 
HETATM   25  C   UNL     1      23.217   6.776  -2.437  1.00  0.00     0.173 C 
HETATM   26  C   UNL     1      22.376   5.518  -2.250  1.00  0.00     0.202 C 
HETATM   27  O   UNL     1      21.960   5.117  -3.561  1.00  0.00    -0.378 OA
BRANCH  24  28
HETATM   28  O   UNL     1      22.349   8.672  -3.735  1.00  0.00    -0.390 OA
HETATM   29  H   UNL     1      21.418   8.695  -3.439  1.00  0.00     0.210 HD
ENDBRANCH  24  28
BRANCH  25  30
HETATM   30  O   UNL     1      23.063   7.702  -1.362  1.00  0.00    -0.391 OA
HETATM   31  H   UNL     1      22.112   7.855  -1.215  1.00  0.00     0.210 HD
ENDBRANCH  25  30
ENDBRANCH  22  23
BRANCH  22  32
HETATM   32  O   UNL     1      23.017   5.795  -6.251  1.00  0.00    -0.391 OA
HETATM   33  H   UNL     1      23.091   4.845  -6.107  1.00  0.00     0.210 HD
ENDBRANCH  22  32
ENDBRANCH  21  22
ENDBRANCH  20  21
ENDBRANCH  18  20
ENDBRANCH   1  18
TORSDOF 23
