REMARK  21 active torsions:
REMARK  status: ('A' for Active; 'I' for Inactive)
REMARK    1  A    between atoms: C_2  and  C_4 
REMARK    2  A    between atoms: C_4  and  C_5 
REMARK    3  A    between atoms: C_5  and  C_6 
REMARK    4  A    between atoms: C_6  and  C_7 
REMARK    5  A    between atoms: C_7  and  C_9 
REMARK    6  A    between atoms: C_9  and  C_10 
REMARK    7  A    between atoms: C_10  and  C_11 
REMARK    8  A    between atoms: C_11  and  C_12 
REMARK    9  A    between atoms: C_12  and  C_14 
REMARK   10  A    between atoms: C_14  and  C_15 
REMARK   11  A    between atoms: C_15  and  C_16 
REMARK   12  A    between atoms: C_16  and  C_17 
REMARK   13  A    between atoms: C_17  and  C_18 
REMARK   14  A    between atoms: C_18  and  C_20 
REMARK   15  A    between atoms: C_20  and  C_21 
REMARK   16  A    between atoms: C_21  and  C_22 
REMARK   17  A    between atoms: C_22  and  C_23 
REMARK   18  A    between atoms: C_23  and  C_25 
REMARK   19  A    between atoms: C_25  and  C_26 
REMARK   20  A    between atoms: C_26  and  C_27 
REMARK   21  A    between atoms: C_27  and  C_28 
ROOT
HETATM    1  C   UNL     1      12.687  -5.849  -4.048  1.00  0.00     0.000 C 
ENDROOT
BRANCH   1   2
HETATM    2  C   UNL     1      11.175  -5.808  -3.944  1.00  0.00     0.004 C 
BRANCH   2   3
HETATM    3  C   UNL     1      10.688  -4.643  -3.081  1.00  0.00    -0.018 C 
HETATM    4  C   UNL     1      11.270  -4.702  -1.658  1.00  0.00     0.010 C 
BRANCH   3   5
HETATM    5  C   UNL     1       9.151  -4.669  -3.092  1.00  0.00     0.004 C 
BRANCH   5   6
HETATM    6  C   UNL     1       8.586  -3.494  -2.319  1.00  0.00     0.001 C 
BRANCH   6   7
HETATM    7  C   UNL     1       7.065  -3.475  -2.288  1.00  0.00     0.004 C 
BRANCH   7   8
HETATM    8  C   UNL     1       6.552  -2.264  -1.489  1.00  0.00    -0.018 C 
HETATM    9  C   UNL     1       7.127  -2.230  -0.061  1.00  0.00     0.010 C 
BRANCH   8  10
HETATM   10  C   UNL     1       5.013  -2.277  -1.488  1.00  0.00     0.004 C 
BRANCH  10  11
HETATM   11  C   UNL     1       4.443  -1.040  -0.803  1.00  0.00     0.001 C 
BRANCH  11  12
HETATM   12  C   UNL     1       2.921  -1.028  -0.783  1.00  0.00     0.004 C 
BRANCH  12  13
HETATM   13  C   UNL     1       2.364   0.228  -0.089  1.00  0.00    -0.023 C 
HETATM   14  C   UNL     1       0.838   0.189  -0.108  1.00  0.00     0.009 C 
HETATM   15  C   UNL     1       2.862   0.380   1.352  1.00  0.00     0.009 C 
ENDBRANCH  12  13
ENDBRANCH  11  12
ENDBRANCH  10  11
ENDBRANCH   8  10
ENDBRANCH   7   8
ENDBRANCH   6   7
ENDBRANCH   5   6
ENDBRANCH   3   5
ENDBRANCH   2   3
ENDBRANCH   1   2
BRANCH   1  16
HETATM   16  C   UNL     1      13.118  -6.969  -4.977  1.00  0.00     0.000 C 
BRANCH  16  17
HETATM   17  C   UNL     1      14.633  -7.000  -5.021  1.00  0.00     0.004 C 
BRANCH  17  18
HETATM   18  C   UNL     1      15.194  -8.174  -5.832  1.00  0.00    -0.018 C 
HETATM   19  C   UNL     1      14.788  -8.078  -7.302  1.00  0.00     0.010 C 
BRANCH  18  20
HETATM   20  C   UNL     1      16.725  -8.221  -5.697  1.00  0.00     0.004 C 
BRANCH  20  21
HETATM   21  C   UNL     1      17.141  -8.505  -4.249  1.00  0.00     0.001 C 
BRANCH  21  22
HETATM   22  C   UNL     1      18.652  -8.534  -4.078  1.00  0.00     0.004 C 
BRANCH  22  23
HETATM   23  C   UNL     1      19.057  -8.652  -2.592  1.00  0.00    -0.018 C 
HETATM   24  C   UNL     1      18.548  -9.960  -1.973  1.00  0.00     0.010 C 
BRANCH  23  25
HETATM   25  C   UNL     1      20.583  -8.543  -2.424  1.00  0.00     0.004 C 
BRANCH  25  26
HETATM   26  C   UNL     1      21.094  -7.158  -2.824  1.00  0.00     0.001 C 
BRANCH  26  27
HETATM   27  C   UNL     1      22.605  -7.023  -2.665  1.00  0.00     0.004 C 
BRANCH  27  28
HETATM   28  C   UNL     1      23.115  -5.658  -3.164  1.00  0.00    -0.023 C 
HETATM   29  C   UNL     1      22.513  -4.488  -2.383  1.00  0.00     0.009 C 
HETATM   30  C   UNL     1      24.640  -5.613  -3.084  1.00  0.00     0.009 C 
ENDBRANCH  27  28
ENDBRANCH  26  27
ENDBRANCH  25  26
ENDBRANCH  23  25
ENDBRANCH  22  23
ENDBRANCH  21  22
ENDBRANCH  20  21
ENDBRANCH  18  20
ENDBRANCH  17  18
ENDBRANCH  16  17
ENDBRANCH   1  16
TORSDOF 21
