REMARK  17 active torsions:
REMARK  status: ('A' for Active; 'I' for Inactive)
REMARK    1  A    between atoms: C_2  and  C_3 
REMARK    2  A    between atoms: C_3  and  C_4 
REMARK    3  A    between atoms: C_4  and  C_5 
REMARK    4  A    between atoms: C_5  and  C_6 
REMARK    5  A    between atoms: C_6  and  C_7 
REMARK    6  A    between atoms: C_7  and  C_8 
REMARK    7  A    between atoms: C_8  and  C_9 
REMARK    8  A    between atoms: C_9  and  C_10 
REMARK    9  A    between atoms: C_10  and  C_11 
REMARK   10  A    between atoms: C_11  and  C_12 
REMARK   11  A    between atoms: C_12  and  C_13 
REMARK   12  A    between atoms: C_13  and  C_14 
REMARK   13  A    between atoms: C_14  and  C_15 
REMARK   14  A    between atoms: C_15  and  C_16 
REMARK   15  A    between atoms: C_16  and  C_17 
REMARK   16  A    between atoms: C_17  and  C_18 
REMARK   17  A    between atoms: C_18  and  O_19 
ROOT
HETATM    1  C   UNL     1      10.564  -2.360  -5.172  1.00  0.00     0.000 C 
ENDROOT
BRANCH   1   2
HETATM    2  C   UNL     1       9.047  -2.358  -5.167  1.00  0.00     0.000 C 
BRANCH   2   3
HETATM    3  C   UNL     1       8.537  -1.779  -3.861  1.00  0.00     0.000 C 
BRANCH   3   4
HETATM    4  C   UNL     1       7.020  -1.779  -3.856  1.00  0.00     0.000 C 
BRANCH   4   5
HETATM    5  C   UNL     1       6.509  -1.202  -2.549  1.00  0.00     0.000 C 
BRANCH   5   6
HETATM    6  C   UNL     1       4.992  -1.203  -2.541  1.00  0.00     0.000 C 
BRANCH   6   7
HETATM    7  C   UNL     1       4.480  -0.623  -1.233  1.00  0.00     0.000 C 
BRANCH   7   8
HETATM    8  C   UNL     1       2.961  -0.625  -1.224  1.00  0.00    -0.000 C 
BRANCH   8   9
HETATM    9  C   UNL     1       2.436  -0.044   0.082  1.00  0.00    -0.005 C 
HETATM   10  C   UNL     1       0.922  -0.050   0.089  1.00  0.00     0.005 C 
ENDBRANCH   8   9
ENDBRANCH   7   8
ENDBRANCH   6   7
ENDBRANCH   5   6
ENDBRANCH   4   5
ENDBRANCH   3   4
ENDBRANCH   2   3
ENDBRANCH   1   2
BRANCH   1  11
HETATM   11  C   UNL     1      11.075  -2.939  -6.477  1.00  0.00     0.000 C 
BRANCH  11  12
HETATM   12  C   UNL     1      12.591  -2.941  -6.482  1.00  0.00     0.000 C 
BRANCH  12  13
HETATM   13  C   UNL     1      13.103  -3.521  -7.788  1.00  0.00     0.000 C 
BRANCH  13  14
HETATM   14  C   UNL     1      14.619  -3.523  -7.794  1.00  0.00     0.000 C 
BRANCH  14  15
HETATM   15  C   UNL     1      15.134  -4.103  -9.101  1.00  0.00     0.000 C 
BRANCH  15  16
HETATM   16  C   UNL     1      16.651  -4.107  -9.109  1.00  0.00     0.002 C 
BRANCH  16  17
HETATM   17  C   UNL     1      17.175  -4.685 -10.414  1.00  0.00     0.026 C 
BRANCH  17  18
HETATM   18  C   UNL     1      18.693  -4.689 -10.424  1.00  0.00     0.164 C 
BRANCH  18  19
HETATM   19  O   UNL     1      19.166  -5.236 -11.648  1.00  0.00    -0.401 OA
HETATM   20  H   UNL     1      18.823  -6.137 -11.715  1.00  0.00     0.209 HD
ENDBRANCH  18  19
ENDBRANCH  17  18
ENDBRANCH  16  17
ENDBRANCH  15  16
ENDBRANCH  14  15
ENDBRANCH  13  14
ENDBRANCH  12  13
ENDBRANCH  11  12
ENDBRANCH   1  11
TORSDOF 17
