REMARK  17 active torsions:
REMARK  status: ('A' for Active; 'I' for Inactive)
REMARK    1  A    between atoms: C_2  and  C_3 
REMARK    2  A    between atoms: C_3  and  C_4 
REMARK    3  A    between atoms: C_4  and  C_5 
REMARK    4  A    between atoms: C_5  and  C_6 
REMARK    5  A    between atoms: C_6  and  C_7 
REMARK    6  A    between atoms: C_7  and  C_8 
REMARK    7  A    between atoms: C_8  and  C_9 
REMARK    8  A    between atoms: C_9  and  C_10 
REMARK    9  A    between atoms: C_10  and  C_11 
REMARK   10  A    between atoms: C_11  and  C_12 
REMARK   11  A    between atoms: C_12  and  C_13 
REMARK   12  A    between atoms: C_13  and  C_14 
REMARK   13  A    between atoms: C_14  and  C_15 
REMARK   14  A    between atoms: C_15  and  C_16 
REMARK   15  A    between atoms: C_16  and  C_17 
REMARK   16  A    between atoms: C_17  and  C_18 
REMARK   17  A    between atoms: C_18  and  O_20 
ROOT
HETATM    1  C   UNL     1      11.194   5.165   4.845  1.00  0.00     0.000 C 
ENDROOT
BRANCH   1   2
HETATM    2  C   UNL     1      10.683   4.124   3.867  1.00  0.00     0.000 C 
BRANCH   2   3
HETATM    3  C   UNL     1       9.166   4.120   3.863  1.00  0.00     0.000 C 
BRANCH   3   4
HETATM    4  C   UNL     1       8.656   3.080   2.886  1.00  0.00     0.000 C 
BRANCH   4   5
HETATM    5  C   UNL     1       7.139   3.077   2.881  1.00  0.00     0.000 C 
BRANCH   5   6
HETATM    6  C   UNL     1       6.629   2.035   1.904  1.00  0.00     0.000 C 
BRANCH   6   7
HETATM    7  C   UNL     1       5.112   2.034   1.897  1.00  0.00     0.000 C 
BRANCH   7   8
HETATM    8  C   UNL     1       4.601   0.989   0.921  1.00  0.00     0.000 C 
BRANCH   8   9
HETATM    9  C   UNL     1       3.083   0.985   0.915  1.00  0.00    -0.000 C 
BRANCH   9  10
HETATM   10  C   UNL     1       2.564  -0.060  -0.059  1.00  0.00    -0.005 C 
HETATM   11  C   UNL     1       1.049  -0.059  -0.064  1.00  0.00     0.005 C 
ENDBRANCH   9  10
ENDBRANCH   8   9
ENDBRANCH   7   8
ENDBRANCH   6   7
ENDBRANCH   5   6
ENDBRANCH   4   5
ENDBRANCH   3   4
ENDBRANCH   2   3
ENDBRANCH   1   2
BRANCH   1  12
HETATM   12  C   UNL     1      12.711   5.169   4.849  1.00  0.00     0.000 C 
BRANCH  12  13
HETATM   13  C   UNL     1      13.223   6.211   5.828  1.00  0.00     0.000 C 
BRANCH  13  14
HETATM   14  C   UNL     1      14.742   6.219   5.836  1.00  0.00     0.000 C 
BRANCH  14  15
HETATM   15  C   UNL     1      15.254   7.265   6.818  1.00  0.00     0.001 C 
BRANCH  15  16
HETATM   16  C   UNL     1      16.774   7.277   6.830  1.00  0.00     0.010 C 
BRANCH  16  17
HETATM   17  C   UNL     1      17.334   8.311   7.802  1.00  0.00     0.110 C 
BRANCH  17  18
HETATM   18  C   UNL     1      18.845   8.287   7.779  1.00  0.00     0.139 C 
HETATM   19  O   UNL     1      19.499   7.530   7.067  1.00  0.00    -0.650 OA
BRANCH  18  20
HETATM   20  O   UNL     1      19.459   9.154   8.593  1.00  0.00    -0.776 OA
HETATM   21  H   UNL     1      18.898   9.735   9.139  1.00  0.00     0.167 HD
ENDBRANCH  18  20
ENDBRANCH  17  18
ENDBRANCH  16  17
ENDBRANCH  15  16
ENDBRANCH  14  15
ENDBRANCH  13  14
ENDBRANCH  12  13
ENDBRANCH   1  12
TORSDOF 17
