REMARK  23 active torsions:
REMARK  status: ('A' for Active; 'I' for Inactive)
REMARK    1  A    between atoms: C_2  and  C_3 
REMARK    2  A    between atoms: C_3  and  C_4 
REMARK    3  A    between atoms: C_4  and  C_5 
REMARK    4  A    between atoms: C_5  and  C_6 
REMARK    5  A    between atoms: C_6  and  C_7 
REMARK    6  A    between atoms: C_7  and  C_8 
REMARK    7  A    between atoms: C_8  and  C_9 
REMARK    8  A    between atoms: C_9  and  C_10 
REMARK    9  A    between atoms: C_10  and  C_11 
REMARK   10  A    between atoms: C_11  and  C_12 
REMARK   11  A    between atoms: C_12  and  C_13 
REMARK   12  A    between atoms: C_13  and  C_14 
REMARK   13  A    between atoms: C_14  and  C_15 
REMARK   14  A    between atoms: C_15  and  C_16 
REMARK   15  A    between atoms: C_16  and  C_17 
REMARK   16  A    between atoms: C_17  and  C_18 
REMARK   17  A    between atoms: C_18  and  O_19 
REMARK   18  A    between atoms: O_19  and  C_20 
REMARK   19  A    between atoms: C_20  and  C_22 
REMARK   20  A    between atoms: C_31  and  O_32 
REMARK   21  A    between atoms: C_34  and  C_39 
REMARK   22  A    between atoms: C_36  and  C_37 
REMARK   23  A    between atoms: C_42  and  O_46 
ROOT
HETATM    1  C   UNL     1      21.046  13.727   3.551  1.00  0.00     0.045 C 
HETATM    2  C   UNL     1      19.738  14.439   3.591  1.00  0.00     0.020 C 
HETATM    3  C   UNL     1      19.890  15.362   2.416  1.00  0.00     0.011 C 
HETATM    4  C   UNL     1      19.574  16.469   3.240  1.00  0.00    -0.036 C 
HETATM    5  C   UNL     1      19.408  17.693   2.349  1.00  0.00     0.011 C 
HETATM    6  C   UNL     1      19.355  18.661   3.416  1.00  0.00     0.015 C 
HETATM    7  C   UNL     1      20.828  18.750   3.690  1.00  0.00    -0.012 C 
HETATM    8  C   UNL     1      21.921  17.583   4.078  1.00  0.00    -0.064 C 
HETATM    9  C   UNL     1      22.973  17.966   4.880  1.00  0.00     0.036 C 
HETATM   10  C   UNL     1      22.539  19.429   5.602  1.00  0.00     0.048 C 
HETATM   11  C   UNL     1      21.214  20.278   4.796  1.00  0.00     0.049 A 
HETATM   12  C   UNL     1      20.456  19.176   5.092  1.00  0.00    -0.023 A 
HETATM   13  C   UNL     1      20.317  20.428   5.924  1.00  0.00     0.022 A 
HETATM   14  C   UNL     1      20.210  18.043   6.054  1.00  0.00     0.017 C 
HETATM   15  C   UNL     1      21.237  16.111   4.270  1.00  0.00     0.025 C 
HETATM   16  C   UNL     1      21.491  14.341   4.864  1.00  0.00     0.029 C 
HETATM   17  C   UNL     1      21.130  19.715   2.352  1.00  0.00     0.021 C 
HETATM   18  C   UNL     1      17.810  16.234   3.169  1.00  0.00     0.016 C 
HETATM   19  C   UNL     1      22.148  14.182   2.450  1.00  0.00     0.026 C 
ENDROOT
BRANCH   1  20
HETATM   20  C   UNL     1      20.651  12.311   3.274  1.00  0.00     0.267 C 
HETATM   21  O   UNL     1      20.418  11.902   2.137  1.00  0.00    -0.264 OA
BRANCH  20  22
HETATM   22  O   UNL     1      20.438  11.655   4.428  1.00  0.00    -0.321 OA
BRANCH  22  23
HETATM   23  C   UNL     1      19.926  10.339   4.268  1.00  0.00     0.178 C 
BRANCH  23  24
HETATM   24  C   UNL     1      18.422  10.374   4.050  1.00  0.00     0.027 C 
BRANCH  24  25
HETATM   25  C   UNL     1      17.917   8.951   3.913  1.00  0.00     0.002 C 
BRANCH  25  26
HETATM   26  C   UNL     1      16.419   8.933   3.683  1.00  0.00     0.000 C 
BRANCH  26  27
HETATM   27  C   UNL     1      15.937   7.500   3.550  1.00  0.00     0.000 C 
BRANCH  27  28
HETATM   28  C   UNL     1      14.438   7.478   3.321  1.00  0.00     0.000 C 
BRANCH  28  29
HETATM   29  C   UNL     1      13.956   6.046   3.187  1.00  0.00     0.000 C 
BRANCH  29  30
HETATM   30  C   UNL     1      12.457   6.025   2.958  1.00  0.00     0.000 C 
BRANCH  30  31
HETATM   31  C   UNL     1      11.975   4.593   2.827  1.00  0.00     0.000 C 
BRANCH  31  32
HETATM   32  C   UNL     1      10.476   4.573   2.598  1.00  0.00     0.000 C 
BRANCH  32  33
HETATM   33  C   UNL     1       9.994   3.141   2.469  1.00  0.00     0.000 C 
BRANCH  33  34
HETATM   34  C   UNL     1       8.495   3.120   2.239  1.00  0.00     0.000 C 
BRANCH  34  35
HETATM   35  C   UNL     1       8.013   1.688   2.108  1.00  0.00     0.000 C 
BRANCH  35  36
HETATM   36  C   UNL     1       6.514   1.667   1.879  1.00  0.00     0.000 C 
BRANCH  36  37
HETATM   37  C   UNL     1       6.032   0.234   1.745  1.00  0.00     0.000 C 
BRANCH  37  38
HETATM   38  C   UNL     1       4.531   0.211   1.516  1.00  0.00    -0.000 C 
BRANCH  38  39
HETATM   39  C   UNL     1       4.042  -1.222   1.379  1.00  0.00    -0.005 C 
HETATM   40  C   UNL     1       2.545  -1.242   1.151  1.00  0.00     0.005 C 
ENDBRANCH  38  39
ENDBRANCH  37  38
ENDBRANCH  36  37
ENDBRANCH  35  36
ENDBRANCH  34  35
ENDBRANCH  33  34
ENDBRANCH  32  33
ENDBRANCH  31  32
ENDBRANCH  30  31
ENDBRANCH  29  30
ENDBRANCH  28  29
ENDBRANCH  27  28
ENDBRANCH  26  27
ENDBRANCH  25  26
ENDBRANCH  24  25
ENDBRANCH  23  24
ENDBRANCH  22  23
ENDBRANCH  20  22
ENDBRANCH   1  20
BRANCH  10  41
HETATM   41  O   UNL     1      23.041  19.433   6.874  1.00  0.00    -0.365 OA
ATOM     42  HO  UNL     1      22.797  20.256   7.280  1.00  0.00     0.217 HD
ENDBRANCH  10  41
BRANCH  11  43
HETATM   43  C   UNL     1      19.800  21.776   4.744  1.00  0.00    -0.036 A 
HETATM   44  C   UNL     1      20.351  22.990   5.691  1.00  0.00     0.005 A 
HETATM   45  C   UNL     1      21.329  22.117   5.293  1.00  0.00     0.016 A 
HETATM   46  C   UNL     1      20.621  24.442   5.298  1.00  0.00    -0.017 C 
HETATM   47  C   UNL     1      20.628  24.589   3.775  1.00  0.00     0.126 C 
HETATM   48  C   UNL     1      19.602  25.414   5.959  1.00  0.00     0.018 C 
HETATM   49  C   UNL     1      22.002  24.773   5.886  1.00  0.00     0.018 C 
HETATM   50  C   UNL     1      19.315  24.140   3.170  1.00  0.00     0.033 C 
HETATM   51  C   UNL     1      19.173  22.592   3.323  1.00  0.00     0.012 C 
HETATM   52  C   UNL     1      18.148  22.424   5.577  1.00  0.00     0.015 C 
BRANCH  47  53
HETATM   53  O   UNL     1      20.930  25.925   3.402  1.00  0.00    -0.395 OA
HETATM   54  H   UNL     1      20.290  26.507   3.840  1.00  0.00     0.210 HD
ENDBRANCH  47  53
ENDBRANCH  11  43
TORSDOF 23
