REMARK  19 active torsions:
REMARK  status: ('A' for Active; 'I' for Inactive)
REMARK    1  A    between atoms: C_2  and  C_3 
REMARK    2  A    between atoms: C_3  and  C_4 
REMARK    3  A    between atoms: C_4  and  C_5 
REMARK    4  A    between atoms: C_5  and  C_6 
REMARK    5  A    between atoms: C_6  and  C_7 
REMARK    6  A    between atoms: C_7  and  C_8 
REMARK    7  A    between atoms: C_8  and  C_9 
REMARK    8  A    between atoms: C_9  and  C_10 
REMARK    9  A    between atoms: C_10  and  C_11 
REMARK   10  A    between atoms: C_11  and  C_12 
REMARK   11  A    between atoms: C_12  and  C_13 
REMARK   12  A    between atoms: C_13  and  C_14 
REMARK   13  A    between atoms: C_14  and  C_15 
REMARK   14  A    between atoms: C_15  and  C_16 
REMARK   15  A    between atoms: C_16  and  C_17 
REMARK   16  A    between atoms: C_17  and  C_18 
REMARK       I    between atoms: C_18  and  N_20 
REMARK   17  A    between atoms: N_20  and  C_21 
REMARK   18  A    between atoms: C_21  and  C_24 
REMARK   19  A    between atoms: C_24  and  O_25 
ROOT
HETATM    1  C   UNL     1      14.628   5.361   6.809  1.00  0.00     0.000 C 
ENDROOT
BRANCH   1   2
HETATM    2  C   UNL     1      13.109   5.354   6.798  1.00  0.00     0.000 C 
BRANCH   2   3
HETATM    3  C   UNL     1      12.597   4.461   5.681  1.00  0.00     0.000 C 
BRANCH   3   4
HETATM    4  C   UNL     1      11.079   4.456   5.675  1.00  0.00     0.000 C 
BRANCH   4   5
HETATM    5  C   UNL     1      10.568   3.562   4.560  1.00  0.00     0.000 C 
BRANCH   5   6
HETATM    6  C   UNL     1       9.050   3.557   4.557  1.00  0.00     0.000 C 
BRANCH   6   7
HETATM    7  C   UNL     1       8.539   2.662   3.444  1.00  0.00     0.000 C 
BRANCH   7   8
HETATM    8  C   UNL     1       7.020   2.658   3.440  1.00  0.00     0.000 C 
BRANCH   8   9
HETATM    9  C   UNL     1       6.508   1.762   2.327  1.00  0.00     0.000 C 
BRANCH   9  10
HETATM   10  C   UNL     1       4.990   1.756   2.321  1.00  0.00     0.000 C 
BRANCH  10  11
HETATM   11  C   UNL     1       4.477   0.858   1.206  1.00  0.00     0.000 C 
BRANCH  11  12
HETATM   12  C   UNL     1       2.958   0.852   1.198  1.00  0.00    -0.000 C 
BRANCH  12  13
HETATM   13  C   UNL     1       2.429  -0.046   0.084  1.00  0.00    -0.005 C 
HETATM   14  C   UNL     1       0.917  -0.052   0.081  1.00  0.00     0.005 C 
ENDBRANCH  12  13
ENDBRANCH  11  12
ENDBRANCH  10  11
ENDBRANCH   9  10
ENDBRANCH   8   9
ENDBRANCH   7   8
ENDBRANCH   6   7
ENDBRANCH   5   6
ENDBRANCH   4   5
ENDBRANCH   3   4
ENDBRANCH   2   3
ENDBRANCH   1   2
BRANCH   1  15
HETATM   15  C   UNL     1      15.140   6.252   7.930  1.00  0.00     0.000 C 
BRANCH  15  16
HETATM   16  C   UNL     1      16.661   6.253   7.949  1.00  0.00     0.009 C 
BRANCH  16  17
HETATM   17  C   UNL     1      17.185   7.134   9.069  1.00  0.00     0.103 C 
BRANCH  17  18
HETATM   18  C   UNL     1      18.688   7.170   9.018  1.00  0.00     0.218 C 
HETATM   19  O   UNL     1      19.268   8.036   8.367  1.00  0.00    -0.274 OA
HETATM   20  N   UNL     1      19.329   6.167   9.705  1.00  0.00    -0.350 N 
HETATM   21  H   UNL     1      18.779   5.537  10.279  1.00  0.00     0.163 HD
BRANCH  20  22
HETATM   22  C   UNL     1      20.809   6.081   9.783  1.00  0.00     0.046 C 
HETATM   23  C   UNL     1      21.216   4.903  10.691  1.00  0.00     0.040 C 
HETATM   24  C   UNL     1      21.357   5.813   8.366  1.00  0.00     0.040 C 
BRANCH  22  25
HETATM   25  C   UNL     1      21.466   7.381  10.340  1.00  0.00     0.194 C 
BRANCH  25  26
HETATM   26  O   UNL     1      21.107   7.669  11.695  1.00  0.00    -0.398 OA
HETATM   27  H   UNL     1      20.146   7.811  11.707  1.00  0.00     0.209 HD
ENDBRANCH  25  26
ENDBRANCH  22  25
ENDBRANCH  20  22
ENDBRANCH  17  18
ENDBRANCH  16  17
ENDBRANCH  15  16
ENDBRANCH   1  15
TORSDOF 19
