REMARK  5 active torsions:
REMARK  status: ('A' for Active; 'I' for Inactive)
REMARK    1  A    between atoms: C_1  and  C_2 
REMARK    2  A    between atoms: C_1  and  C_6 
REMARK    3  A    between atoms: C_2  and  C_3 
REMARK    4  A    between atoms: C_3  and  O_5 
REMARK    5  A    between atoms: C_6  and  O_8 
ROOT
HETATM    1  C   UNL     1       0.971   0.003  -0.080  1.00  0.00     0.120 C 
ENDROOT
BRANCH   1   2
HETATM    2  C   UNL     1       0.390  -0.541   1.221  1.00  0.00     0.120 C 
BRANCH   2   3
HETATM    3  C   UNL     1      -1.114  -0.521   1.177  1.00  0.00     0.139 C 
HETATM    4  O   UNL     1      -1.777  -0.126   0.230  1.00  0.00    -0.650 OA
BRANCH   3   5
HETATM    5  O   UNL     1      -1.676  -0.992   2.312  1.00  0.00    -0.776 OA
HETATM    6  H   UNL     1      -1.030  -1.274   2.988  1.00  0.00     0.167 HD
ENDBRANCH   3   5
ENDBRANCH   2   3
ENDBRANCH   1   2
BRANCH   1   7
HETATM    7  C   UNL     1       2.475  -0.010  -0.051  1.00  0.00     0.139 C 
HETATM    8  O   UNL     1       3.151  -0.403   0.886  1.00  0.00    -0.650 OA
BRANCH   7   9
HETATM    9  O   UNL     1       3.018   0.468  -1.193  1.00  0.00    -0.776 OA
HETATM   10  H   UNL     1       2.359   0.747  -1.859  1.00  0.00     0.167 HD
ENDBRANCH   7   9
ENDBRANCH   1   7
TORSDOF 5
