REMARK WARNING: 32 MAX_TORS EXCEEDED!!!
REMARK  35 active torsions:
REMARK  status: ('A' for Active; 'I' for Inactive)
REMARK    1  A    between atoms: C_2  and  C_3 
REMARK    2  A    between atoms: C_3  and  C_4 
REMARK    3  A    between atoms: C_4  and  C_5 
REMARK    4  A    between atoms: C_5  and  C_6 
REMARK    5  A    between atoms: C_6  and  C_7 
REMARK    6  A    between atoms: C_7  and  C_8 
REMARK    7  A    between atoms: C_8  and  C_9 
REMARK    8  A    between atoms: C_9  and  C_10 
REMARK    9  A    between atoms: C_10  and  C_11 
REMARK   10  A    between atoms: C_11  and  C_12 
REMARK   11  A    between atoms: C_12  and  O_14 
REMARK   12  A    between atoms: O_14  and  C_15 
REMARK   13  A    between atoms: C_16  and  O_49 
REMARK   14  A    between atoms: C_17  and  O_48 
REMARK   15  A    between atoms: C_18  and  C_46 
REMARK   16  A    between atoms: C_20  and  C_21 
REMARK   17  A    between atoms: C_20  and  O_32 
REMARK   18  A    between atoms: C_21  and  C_30 
REMARK   19  A    between atoms: C_22  and  O_29 
REMARK   20  A    between atoms: C_23  and  O_28 
REMARK   21  A    between atoms: C_24  and  C_26 
REMARK   22  A    between atoms: C_26  and  O_27 
REMARK   23  A    between atoms: C_30  and  O_31 
REMARK   24  A    between atoms: O_32  and  C_33 
REMARK   25  A    between atoms: C_33  and  C_35 
REMARK   26  A    between atoms: C_35  and  C_36 
REMARK   27  A    between atoms: C_36  and  C_37 
REMARK   28  A    between atoms: C_37  and  C_38 
REMARK   29  A    between atoms: C_38  and  C_39 
REMARK   30  A    between atoms: C_39  and  C_40 
REMARK   31  A    between atoms: C_40  and  C_41 
REMARK   32  A    between atoms: C_41  and  C_42 
REMARK   33  A    between atoms: C_42  and  C_43 
REMARK   34  A    between atoms: C_43  and  C_44 
REMARK   35  A    between atoms: C_46  and  O_47 
ROOT
HETATM    1  C   UNL     1      14.829  -7.630  -3.727  1.00  0.00     0.229 C 
HETATM    2  C   UNL     1      15.119  -8.940  -4.462  1.00  0.00     0.184 C 
HETATM    3  C   UNL     1      14.764 -10.146  -3.577  1.00  0.00     0.180 C 
HETATM    4  C   UNL     1      15.240 -10.031  -2.112  1.00  0.00     0.180 C 
HETATM    5  O   UNL     1      15.124  -8.700  -1.563  1.00  0.00    -0.340 OA
HETATM    6  C   UNL     1      15.555  -7.556  -2.337  1.00  0.00     0.239 C 
ENDROOT
BRANCH   6   7
HETATM    7  C   UNL     1      17.166  -7.371  -2.269  1.00  0.00     0.170 C 
HETATM    8  C   UNL     1      17.700  -6.123  -3.025  1.00  0.00     0.192 C 
HETATM    9  C   UNL     1      18.952  -6.581  -3.800  1.00  0.00     0.181 C 
HETATM   10  C   UNL     1      19.131  -8.046  -3.450  1.00  0.00     0.177 C 
HETATM   11  O   UNL     1      17.868  -8.483  -2.885  1.00  0.00    -0.359 OA
BRANCH   8  12
HETATM   12  O   UNL     1      17.988  -4.971  -2.228  1.00  0.00    -0.390 OA
HETATM   13  H   UNL     1      18.607  -5.185  -1.507  1.00  0.00     0.210 HD
ENDBRANCH   8  12
BRANCH   9  14
HETATM   14  O   UNL     1      20.133  -5.827  -3.570  1.00  0.00    -0.390 OA
HETATM   15  H   UNL     1      19.981  -5.188  -2.853  1.00  0.00     0.210 HD
ENDBRANCH   9  14
BRANCH  10  16
HETATM   16  C   UNL     1      20.325  -8.373  -2.536  1.00  0.00     0.198 C 
BRANCH  16  17
HETATM   17  O   UNL     1      20.333  -9.753  -2.206  1.00  0.00    -0.398 OA
HETATM   18  H   UNL     1      19.450  -9.985  -1.883  1.00  0.00     0.209 HD
ENDBRANCH  16  17
ENDBRANCH  10  16
BRANCH   7  19
HETATM   19  C   UNL     1      17.625  -7.350  -0.768  1.00  0.00     0.210 C 
BRANCH  19  20
HETATM   20  O   UNL     1      17.149  -8.383   0.057  1.00  0.00    -0.398 OA
HETATM   21  H   UNL     1      16.169  -8.285   0.159  1.00  0.00     0.209 HD
ENDBRANCH  19  20
ENDBRANCH   7  19
ENDBRANCH   6   7
BRANCH   6  22
HETATM   22  O   UNL     1      15.045  -6.292  -1.789  1.00  0.00    -0.277 OA
BRANCH  22  23
HETATM   23  C   UNL     1      14.960  -6.115  -0.447  1.00  0.00     0.261 C 
HETATM   24  O   UNL     1      14.699  -6.966   0.379  1.00  0.00    -0.265 OA
BRANCH  23  25
HETATM   25  C   UNL     1      15.535  -4.767  -0.089  1.00  0.00     0.111 C 
BRANCH  25  26
HETATM   26  C   UNL     1      14.494  -3.813   0.405  1.00  0.00     0.010 C 
BRANCH  26  27
HETATM   27  C   UNL     1      15.154  -2.478   0.701  1.00  0.00     0.000 C 
BRANCH  27  28
HETATM   28  C   UNL     1      14.072  -1.518   1.143  1.00  0.00     0.000 C 
BRANCH  28  29
HETATM   29  C   UNL     1      14.633  -0.146   1.447  1.00  0.00     0.000 C 
BRANCH  29  30
HETATM   30  C   UNL     1      13.485   0.760   1.872  1.00  0.00     0.000 C 
BRANCH  30  31
HETATM   31  C   UNL     1      14.001   2.147   2.183  1.00  0.00     0.000 C 
BRANCH  31  32
HETATM   32  C   UNL     1      12.855   3.052   2.609  1.00  0.00     0.000 C 
BRANCH  32  33
HETATM   33  C   UNL     1      13.380   4.445   2.921  1.00  0.00    -0.000 C 
BRANCH  33  34
HETATM   34  C   UNL     1      12.254   5.374   3.354  1.00  0.00    -0.005 C 
HETATM   35  C   UNL     1      12.787   6.757   3.662  1.00  0.00     0.005 C 
ENDBRANCH  33  34
ENDBRANCH  32  33
ENDBRANCH  31  32
ENDBRANCH  30  31
ENDBRANCH  29  30
ENDBRANCH  28  29
ENDBRANCH  27  28
ENDBRANCH  26  27
ENDBRANCH  25  26
ENDBRANCH  23  25
ENDBRANCH  22  23
ENDBRANCH   6  22
BRANCH   1  36
HETATM   36  O   UNL     1      13.370  -7.578  -3.473  1.00  0.00    -0.308 OA
BRANCH  36  37
HETATM   37  C   UNL     1      12.550  -7.269  -4.510  1.00  0.00     0.259 C 
HETATM   38  O   UNL     1      12.936  -6.965  -5.629  1.00  0.00    -0.265 OA
BRANCH  37  39
HETATM   39  C   UNL     1      11.090  -7.412  -4.136  1.00  0.00     0.111 C 
BRANCH  39  40
HETATM   40  C   UNL     1      10.682  -6.432  -3.042  1.00  0.00     0.010 C 
BRANCH  40  41
HETATM   41  C   UNL     1       9.197  -6.546  -2.682  1.00  0.00     0.000 C 
BRANCH  41  42
HETATM   42  C   UNL     1       8.836  -5.563  -1.570  1.00  0.00     0.000 C 
BRANCH  42  43
HETATM   43  C   UNL     1       7.364  -5.655  -1.185  1.00  0.00     0.000 C 
BRANCH  43  44
HETATM   44  C   UNL     1       7.020  -4.660  -0.080  1.00  0.00     0.000 C 
BRANCH  44  45
HETATM   45  C   UNL     1       5.548  -4.755   0.311  1.00  0.00     0.000 C 
BRANCH  45  46
HETATM   46  C   UNL     1       5.198  -3.769   1.422  1.00  0.00     0.000 C 
BRANCH  46  47
HETATM   47  C   UNL     1       3.721  -3.875   1.803  1.00  0.00    -0.000 C 
BRANCH  47  48
HETATM   48  C   UNL     1       3.358  -2.893   2.915  1.00  0.00    -0.005 C 
HETATM   49  C   UNL     1       1.888  -3.003   3.287  1.00  0.00     0.005 C 
ENDBRANCH  47  48
ENDBRANCH  46  47
ENDBRANCH  45  46
ENDBRANCH  44  45
ENDBRANCH  43  44
ENDBRANCH  42  43
ENDBRANCH  41  42
ENDBRANCH  40  41
ENDBRANCH  39  40
ENDBRANCH  37  39
ENDBRANCH  36  37
ENDBRANCH   1  36
BRANCH   2  50
HETATM   50  O   UNL     1      16.455  -8.965  -4.961  1.00  0.00    -0.390 OA
HETATM   51  H   UNL     1      17.048  -9.278  -4.258  1.00  0.00     0.210 HD
ENDBRANCH   2  50
BRANCH   4  52
HETATM   52  C   UNL     1      16.559 -10.750  -1.757  1.00  0.00     0.198 C 
BRANCH  52  53
HETATM   53  O   UNL     1      16.483 -12.161  -1.934  1.00  0.00    -0.398 OA
HETATM   54  H   UNL     1      16.317 -12.550  -1.057  1.00  0.00     0.209 HD
ENDBRANCH  52  53
ENDBRANCH   4  52
BRANCH   3  55
HETATM   55  O   UNL     1      15.121 -11.358  -4.230  1.00  0.00    -0.390 OA
HETATM   56  H   UNL     1      16.081 -11.499  -4.150  1.00  0.00     0.210 HD
ENDBRANCH   3  55
TORSDOF 35
