REMARK  4 active torsions:
REMARK  status: ('A' for Active; 'I' for Inactive)
REMARK    1  A    between atoms: C_1  and  C_2 
REMARK    2  A    between atoms: C_1  and  N_7 
REMARK    3  A    between atoms: C_2  and  S_3 
REMARK    4  A    between atoms: S_3  and  O_6 
ROOT
HETATM    1  C   UNL     1       0.410   0.819   1.124  1.00  0.00     0.185 C 
ENDROOT
BRANCH   1   2
HETATM    2  C   UNL     1       0.942   0.009  -0.046  1.00  0.00     0.283 C 
BRANCH   2   3
HETATM    3  N   UNL     1       2.407  -0.003  -0.049  1.00  0.00     0.079 N 
HETATM    4  H   UNL     1       2.766   0.935  -0.224  1.00  0.00     0.312 HD
HETATM    5  H   UNL     1       2.737  -0.576  -0.828  1.00  0.00     0.312 HD
ENDBRANCH   2   3
ENDBRANCH   1   2
BRANCH   1   6
HETATM    6  S   UNL     1      -1.374   0.842   1.092  1.00  0.00     0.095 S 
HETATM    7  O   UNL     1      -1.828   1.490  -0.117  1.00  0.00    -0.601 OA
HETATM    8  O   UNL     1      -1.896  -0.428   1.538  1.00  0.00    -0.601 OA
BRANCH   6   9
HETATM    9  O   UNL     1      -1.598   1.927   2.268  1.00  0.00    -0.296 OA
HETATM   10  H   UNL     1      -2.025   2.717   1.873  1.00  0.00     0.232 HD
ENDBRANCH   6   9
ENDBRANCH   1   6
TORSDOF 4
