REMARK  5 active torsions:
REMARK  status: ('A' for Active; 'I' for Inactive)
REMARK       I    between atoms: N_4  and  C_7 
REMARK    1  A    between atoms: C_7  and  C_9 
REMARK    2  A    between atoms: C_9  and  C_10 
REMARK    3  A    between atoms: C_10  and  C_11 
REMARK    4  A    between atoms: C_11  and  C_12 
REMARK    5  A    between atoms: C_12  and  C_13 
ROOT
HETATM    1  C   UNL     1       4.863  -2.386   2.902  1.00  0.00     0.005 C 
ENDROOT
BRANCH   1   2
HETATM    2  C   UNL     1       4.275  -1.050   2.435  1.00  0.00     0.010 C 
BRANCH   2   3
HETATM    3  C   UNL     1       3.045  -1.226   1.543  1.00  0.00     0.103 C 
BRANCH   3   4
HETATM    4  C   UNL     1       2.440   0.091   1.091  1.00  0.00     0.219 C 
HETATM    5  N   UNL     1       1.346   0.006   0.238  1.00  0.00    -0.352 N 
HETATM    6  C   UNL     1       0.720   1.232  -0.245  1.00  0.00     0.125 C 
HETATM    7  C   UNL     1       0.654  -1.226  -0.148  1.00  0.00     0.125 C 
HETATM    8  C   UNL     1      -0.717   1.325   0.259  1.00  0.00     0.020 C 
HETATM    9  C   UNL     1      -1.511   0.070  -0.111  1.00  0.00     0.003 C 
HETATM   10  C   UNL     1      -0.791  -1.199   0.348  1.00  0.00     0.020 C 
HETATM   11  O   UNL     1       2.913   1.169   1.454  1.00  0.00    -0.273 OA
ENDBRANCH   3   4
ENDBRANCH   2   3
ENDBRANCH   1   2
BRANCH   1  12
HETATM   12  C   UNL     1       5.361  -3.257   1.744  1.00  0.00     0.038 C 
BRANCH  12  13
HETATM   13  C   UNL     1       5.936  -4.564   2.226  1.00  0.00    -0.055 A 
HETATM   14  C   UNL     1       5.102  -5.683   2.387  1.00  0.00     0.047 A 
HETATM   15  C   UNL     1       5.668  -6.853   2.844  1.00  0.00     0.105 A 
HETATM   16  C   UNL     1       7.008  -6.942   3.138  1.00  0.00     0.105 A 
HETATM   17  O   UNL     1       5.009  -8.023   3.062  1.00  0.00    -0.323 OA
HETATM   18  C   UNL     1       7.857  -5.869   2.989  1.00  0.00     0.040 A 
HETATM   19  O   UNL     1       7.360  -8.180   3.579  1.00  0.00    -0.323 OA
HETATM   20  C   UNL     1       7.311  -4.665   2.533  1.00  0.00     0.010 A 
HETATM   21  C   UNL     1       6.078  -8.840   3.583  1.00  0.00     0.352 A 
ENDBRANCH  12  13
ENDBRANCH   1  12
TORSDOF 5
