REMARK  13 active torsions:
REMARK  status: ('A' for Active; 'I' for Inactive)
REMARK    1  A    between atoms: C_8  and  C_11 
REMARK    2  A    between atoms: C_11  and  C_12 
REMARK    3  A    between atoms: C_12  and  C_13 
REMARK    4  A    between atoms: C_13  and  C_14 
REMARK    5  A    between atoms: C_14  and  C_16 
REMARK    6  A    between atoms: C_16  and  C_17 
REMARK    7  A    between atoms: C_17  and  C_18 
REMARK    8  A    between atoms: C_18  and  C_19 
REMARK    9  A    between atoms: C_19  and  C_21 
REMARK   10  A    between atoms: C_21  and  C_22 
REMARK   11  A    between atoms: C_22  and  C_23 
REMARK   12  A    between atoms: C_23  and  C_24 
REMARK   13  A    between atoms: C_28  and  O_29 
ROOT
HETATM    1  C   UNL     1       7.467  -3.600  -1.262  1.00  0.00     0.052 C 
HETATM    2  C   UNL     1       7.141  -2.419  -0.383  1.00  0.00    -0.020 A 
HETATM    3  C   UNL     1       7.451  -1.085  -0.706  1.00  0.00    -0.019 A 
HETATM    4  C   UNL     1       7.065  -0.055   0.184  1.00  0.00     0.083 A 
HETATM    5  C   UNL     1       6.431  -0.334   1.410  1.00  0.00    -0.015 A 
HETATM    6  C   UNL     1       6.091   0.789   2.356  1.00  0.00     0.045 C 
HETATM    7  C   UNL     1       6.778   2.078   1.965  1.00  0.00     0.043 C 
HETATM    8  C   UNL     1       6.696   2.302   0.453  1.00  0.00     0.064 C 
HETATM    9  O   UNL     1       7.346   1.223  -0.238  1.00  0.00    -0.339 OA
HETATM   10  C   UNL     1       5.249   2.421  -0.059  1.00  0.00     0.046 C 
HETATM   11  C   UNL     1       6.089  -1.664   1.726  1.00  0.00    -0.019 A 
HETATM   12  C   UNL     1       6.458  -2.680   0.825  1.00  0.00     0.078 A 
HETATM   13  C   UNL     1       5.336  -2.000   2.987  1.00  0.00     0.052 C 
HETATM   14  C   UNL     1       8.185  -0.680  -1.966  1.00  0.00     0.052 C 
ENDROOT
BRANCH   8  15
HETATM   15  C   UNL     1       7.449   3.603   0.073  1.00  0.00     0.038 C 
BRANCH  15  16
HETATM   16  C   UNL     1       8.943   3.523   0.393  1.00  0.00     0.003 C 
BRANCH  16  17
HETATM   17  C   UNL     1       9.690   4.803   0.049  1.00  0.00     0.004 C 
BRANCH  17  18
HETATM   18  C   UNL     1      11.162   4.725   0.515  1.00  0.00    -0.019 C 
HETATM   19  C   UNL     1      11.933   3.624  -0.220  1.00  0.00     0.010 C 
BRANCH  18  20
HETATM   20  C   UNL     1      11.878   6.070   0.330  1.00  0.00     0.004 C 
BRANCH  20  21
HETATM   21  C   UNL     1      11.295   7.148   1.245  1.00  0.00     0.001 C 
BRANCH  21  22
HETATM   22  C   UNL     1      12.016   8.475   1.062  1.00  0.00     0.004 C 
BRANCH  22  23
HETATM   23  C   UNL     1      11.346   9.622   1.845  1.00  0.00    -0.019 C 
HETATM   24  C   UNL     1      11.380   9.369   3.356  1.00  0.00     0.010 C 
BRANCH  23  25
HETATM   25  C   UNL     1      12.011  10.974   1.520  1.00  0.00     0.004 C 
BRANCH  25  26
HETATM   26  C   UNL     1      11.816  11.364   0.052  1.00  0.00     0.001 C 
BRANCH  26  27
HETATM   27  C   UNL     1      12.460  12.704  -0.293  1.00  0.00     0.004 C 
BRANCH  27  28
HETATM   28  C   UNL     1      12.334  13.032  -1.793  1.00  0.00    -0.023 C 
HETATM   29  C   UNL     1      10.875  13.149  -2.246  1.00  0.00     0.009 C 
HETATM   30  C   UNL     1      13.085  14.323  -2.108  1.00  0.00     0.009 C 
ENDBRANCH  27  28
ENDBRANCH  26  27
ENDBRANCH  25  26
ENDBRANCH  23  25
ENDBRANCH  22  23
ENDBRANCH  21  22
ENDBRANCH  20  21
ENDBRANCH  18  20
ENDBRANCH  17  18
ENDBRANCH  16  17
ENDBRANCH  15  16
ENDBRANCH   8  15
BRANCH  12  31
HETATM   31  O   UNL     1       6.160  -3.997   1.082  1.00  0.00    -0.360 OA
HETATM   32  H   UNL     1       5.748  -4.080   1.953  1.00  0.00     0.217 HD
ENDBRANCH  12  31
TORSDOF 13
