REMARK  30 active torsions:
REMARK  status: ('A' for Active; 'I' for Inactive)
REMARK    1  A    between atoms: C_2  and  C_3 
REMARK    2  A    between atoms: C_3  and  C_4 
REMARK    3  A    between atoms: C_4  and  C_5 
REMARK    4  A    between atoms: C_5  and  C_6 
REMARK    5  A    between atoms: C_6  and  C_7 
REMARK    6  A    between atoms: C_7  and  C_8 
REMARK    7  A    between atoms: C_8  and  O_9 
REMARK    8  A    between atoms: O_9  and  C_10 
REMARK    9  A    between atoms: C_10  and  C_12 
REMARK   10  A    between atoms: C_12  and  C_13 
REMARK   11  A    between atoms: C_13  and  C_14 
REMARK   12  A    between atoms: C_13  and  C_26 
REMARK   13  A    between atoms: C_13  and  O_37 
REMARK   14  A    between atoms: C_14  and  C_15 
REMARK   15  A    between atoms: C_15  and  O_17 
REMARK   16  A    between atoms: O_17  and  C_18 
REMARK   17  A    between atoms: C_18  and  C_19 
REMARK   18  A    between atoms: C_19  and  C_20 
REMARK   19  A    between atoms: C_20  and  C_21 
REMARK   20  A    between atoms: C_21  and  C_22 
REMARK   21  A    between atoms: C_22  and  C_23 
REMARK   22  A    between atoms: C_23  and  C_24 
REMARK   23  A    between atoms: C_26  and  O_28 
REMARK   24  A    between atoms: O_28  and  C_29 
REMARK   25  A    between atoms: C_29  and  C_30 
REMARK   26  A    between atoms: C_30  and  C_31 
REMARK   27  A    between atoms: C_31  and  C_32 
REMARK   28  A    between atoms: C_32  and  C_33 
REMARK   29  A    between atoms: C_33  and  C_34 
REMARK   30  A    between atoms: C_34  and  C_35 
ROOT
HETATM    1  C   UNL     1      12.501  -4.130  -5.956  1.00  0.00     0.162 C 
ENDROOT
BRANCH   1   2
HETATM    2  C   UNL     1      10.966  -4.159  -5.817  1.00  0.00     0.160 C 
BRANCH   2   3
HETATM    3  C   UNL     1      10.255  -3.708  -7.063  1.00  0.00     0.262 C 
HETATM    4  O   UNL     1      10.815  -3.352  -8.089  1.00  0.00    -0.265 OA
BRANCH   3   5
HETATM    5  O   UNL     1       8.903  -3.704  -6.875  1.00  0.00    -0.321 OA
BRANCH   5   6
HETATM    6  C   UNL     1       8.249  -2.747  -7.707  1.00  0.00     0.178 C 
BRANCH   6   7
HETATM    7  C   UNL     1       7.298  -3.411  -8.678  1.00  0.00     0.027 C 
BRANCH   7   8
HETATM    8  C   UNL     1       6.620  -2.344  -9.531  1.00  0.00     0.002 C 
BRANCH   8   9
HETATM    9  C   UNL     1       5.655  -2.978 -10.518  1.00  0.00     0.000 C 
BRANCH   9  10
HETATM   10  C   UNL     1       4.972  -1.919 -11.377  1.00  0.00     0.000 C 
BRANCH  10  11
HETATM   11  C   UNL     1       4.010  -2.579 -12.358  1.00  0.00    -0.000 C 
BRANCH  11  12
HETATM   12  C   UNL     1       3.310  -1.544 -13.232  1.00  0.00    -0.005 C 
HETATM   13  C   UNL     1       2.355  -2.215 -14.204  1.00  0.00     0.005 C 
ENDBRANCH  11  12
ENDBRANCH  10  11
ENDBRANCH   9  10
ENDBRANCH   8   9
ENDBRANCH   7   8
ENDBRANCH   6   7
ENDBRANCH   5   6
ENDBRANCH   3   5
ENDBRANCH   2   3
ENDBRANCH   1   2
BRANCH   1  14
HETATM   14  C   UNL     1      13.129  -2.759  -6.230  1.00  0.00     0.160 C 
BRANCH  14  15
HETATM   15  C   UNL     1      12.805  -1.804  -5.115  1.00  0.00     0.262 C 
HETATM   16  O   UNL     1      11.673  -1.472  -4.828  1.00  0.00    -0.265 OA
BRANCH  15  17
HETATM   17  O   UNL     1      13.940  -1.279  -4.573  1.00  0.00    -0.321 OA
BRANCH  17  18
HETATM   18  C   UNL     1      14.006   0.153  -4.671  1.00  0.00     0.178 C 
BRANCH  18  19
HETATM   19  C   UNL     1      14.036   0.798  -3.292  1.00  0.00     0.027 C 
BRANCH  19  20
HETATM   20  C   UNL     1      14.140   2.321  -3.397  1.00  0.00     0.002 C 
BRANCH  20  21
HETATM   21  C   UNL     1      14.162   2.970  -2.014  1.00  0.00     0.000 C 
BRANCH  21  22
HETATM   22  C   UNL     1      14.266   4.492  -2.113  1.00  0.00     0.000 C 
BRANCH  22  23
HETATM   23  C   UNL     1      14.284   5.130  -0.725  1.00  0.00    -0.000 C 
BRANCH  23  24
HETATM   24  C   UNL     1      14.385   6.651  -0.811  1.00  0.00    -0.005 C 
HETATM   25  C   UNL     1      14.401   7.276   0.574  1.00  0.00     0.005 C 
ENDBRANCH  23  24
ENDBRANCH  22  23
ENDBRANCH  21  22
ENDBRANCH  20  21
ENDBRANCH  19  20
ENDBRANCH  18  19
ENDBRANCH  17  18
ENDBRANCH  15  17
ENDBRANCH  14  15
ENDBRANCH   1  14
BRANCH   1  26
HETATM   26  C   UNL     1      13.166  -4.755  -4.706  1.00  0.00     0.294 C 
HETATM   27  O   UNL     1      14.260  -4.444  -4.268  1.00  0.00    -0.262 OA
BRANCH  26  28
HETATM   28  O   UNL     1      12.412  -5.799  -4.238  1.00  0.00    -0.319 OA
BRANCH  28  29
HETATM   29  C   UNL     1      13.140  -6.870  -3.613  1.00  0.00     0.178 C 
BRANCH  29  30
HETATM   30  C   UNL     1      12.721  -7.003  -2.153  1.00  0.00     0.027 C 
BRANCH  30  31
HETATM   31  C   UNL     1      13.453  -8.151  -1.459  1.00  0.00     0.002 C 
BRANCH  31  32
HETATM   32  C   UNL     1      13.043  -8.283   0.009  1.00  0.00     0.000 C 
BRANCH  32  33
HETATM   33  C   UNL     1      13.789  -9.437   0.682  1.00  0.00     0.000 C 
BRANCH  33  34
HETATM   34  C   UNL     1      13.390  -9.578   2.151  1.00  0.00    -0.000 C 
BRANCH  34  35
HETATM   35  C   UNL     1      14.138 -10.730   2.822  1.00  0.00    -0.005 C 
HETATM   36  C   UNL     1      13.738 -10.867   4.282  1.00  0.00     0.005 C 
ENDBRANCH  34  35
ENDBRANCH  33  34
ENDBRANCH  32  33
ENDBRANCH  31  32
ENDBRANCH  30  31
ENDBRANCH  29  30
ENDBRANCH  28  29
ENDBRANCH  26  28
ENDBRANCH   1  26
BRANCH   1  37
HETATM   37  O   UNL     1      12.861  -4.991  -7.053  1.00  0.00    -0.379 OA
HETATM   38  H   UNL     1      12.509  -4.611  -7.884  1.00  0.00     0.211 HD
ENDBRANCH   1  37
TORSDOF 30
