REMARK  13 active torsions:
REMARK  status: ('A' for Active; 'I' for Inactive)
REMARK    1  A    between atoms: C_2  and  C_3 
REMARK    2  A    between atoms: C_3  and  C_4 
REMARK    3  A    between atoms: C_4  and  C_5 
REMARK    4  A    between atoms: C_5  and  C_6 
REMARK    5  A    between atoms: C_6  and  C_7 
REMARK    6  A    between atoms: C_7  and  C_8 
REMARK    7  A    between atoms: C_8  and  SI_9 
REMARK    8  A    between atoms: SI_9  and  O_10 
REMARK    9  A    between atoms: SI_9  and  O_13 
REMARK   10  A    between atoms: SI_9  and  O_16 
REMARK   11  A    between atoms: O_10  and  C_11 
REMARK   12  A    between atoms: O_13  and  C_14 
REMARK   13  A    between atoms: O_16  and  C_17 
ROOT
HETATM    1 SI   UNL     1       9.196  -1.751  -5.933  1.00  0.00     0.000 Si
ENDROOT
BRANCH   1   2
HETATM    2  C   UNL     1       8.627  -1.272  -4.180  1.00  0.00     0.000 C 
BRANCH   2   3
HETATM    3  C   UNL     1       7.123  -1.338  -3.914  1.00  0.00     0.000 C 
BRANCH   3   4
HETATM    4  C   UNL     1       6.733  -0.821  -2.529  1.00  0.00     0.000 C 
BRANCH   4   5
HETATM    5  C   UNL     1       7.006   0.665  -2.293  1.00  0.00     0.000 C 
BRANCH   5   6
HETATM    6  C   UNL     1       6.382   1.606  -3.327  1.00  0.00     0.000 C 
BRANCH   6   7
HETATM    7  C   UNL     1       4.858   1.494  -3.379  1.00  0.00    -0.000 C 
BRANCH   7   8
HETATM    8  C   UNL     1       4.259   2.416  -4.438  1.00  0.00    -0.005 C 
HETATM    9  C   UNL     1       2.742   2.324  -4.439  1.00  0.00     0.005 C 
ENDBRANCH   7   8
ENDBRANCH   6   7
ENDBRANCH   5   6
ENDBRANCH   4   5
ENDBRANCH   3   4
ENDBRANCH   2   3
ENDBRANCH   1   2
BRANCH   1  10
HETATM   10  O   UNL     1      10.860  -1.601  -6.031  1.00  0.00    -0.241 OA
BRANCH  10  11
HETATM   11  C   UNL     1      11.667  -2.372  -5.148  1.00  0.00     0.205 C 
HETATM   12  C   UNL     1      13.126  -2.047  -5.416  1.00  0.00     0.036 C 
ENDBRANCH  10  11
ENDBRANCH   1  10
BRANCH   1  13
HETATM   13  O   UNL     1       8.789  -3.326  -6.310  1.00  0.00    -0.241 OA
BRANCH  13  14
HETATM   14  C   UNL     1       7.423  -3.679  -6.482  1.00  0.00     0.205 C 
HETATM   15  C   UNL     1       7.332  -5.150  -6.841  1.00  0.00     0.036 C 
ENDBRANCH  13  14
ENDBRANCH   1  13
BRANCH   1  16
HETATM   16  O   UNL     1       8.519  -0.717  -7.060  1.00  0.00    -0.241 OA
BRANCH  16  17
HETATM   17  C   UNL     1       8.892   0.659  -7.023  1.00  0.00     0.205 C 
HETATM   18  C   UNL     1       8.189   1.389  -8.154  1.00  0.00     0.036 C 
ENDBRANCH  16  17
ENDBRANCH   1  16
TORSDOF 13
