REMARK  9 active torsions:
REMARK  status: ('A' for Active; 'I' for Inactive)
REMARK    1  A    between atoms: C_1  and  C_2 
REMARK    2  A    between atoms: C_1  and  N_4 
REMARK    3  A    between atoms: C_2  and  O_3 
REMARK    4  A    between atoms: N_4  and  C_5 
REMARK    5  A    between atoms: N_4  and  C_8 
REMARK    6  A    between atoms: C_5  and  C_6 
REMARK    7  A    between atoms: C_6  and  O_7 
REMARK    8  A    between atoms: C_8  and  C_9 
REMARK    9  A    between atoms: C_9  and  O_10 
ROOT
HETATM    1  N   UNL     1       2.466   0.064   0.070  1.00  0.00     0.094 N 
ENDROOT
BRANCH   1   2
HETATM    2  C   UNL     1       0.973   0.043   0.022  1.00  0.00     0.298 C 
BRANCH   2   3
HETATM    3  C   UNL     1       0.266   1.273   0.616  1.00  0.00     0.194 C 
BRANCH   3   4
HETATM    4  O   UNL     1       0.703   2.468  -0.020  1.00  0.00    -0.399 OA
HETATM    5  H   UNL     1       1.676   2.479   0.082  1.00  0.00     0.209 HD
ENDBRANCH   3   4
ENDBRANCH   2   3
ENDBRANCH   1   2
BRANCH   1   6
HETATM    6  C   UNL     1       2.916   0.055   1.494  1.00  0.00     0.298 C 
BRANCH   6   7
HETATM    7  C   UNL     1       4.439   0.105   1.725  1.00  0.00     0.194 C 
BRANCH   7   8
HETATM    8  O   UNL     1       5.012   1.241   1.094  1.00  0.00    -0.399 OA
HETATM    9  H   UNL     1       4.749   1.186   0.154  1.00  0.00     0.209 HD
ENDBRANCH   7   8
ENDBRANCH   6   7
ENDBRANCH   1   6
BRANCH   1  10
HETATM   10  C   UNL     1       3.005  -1.136  -0.637  1.00  0.00     0.298 C 
BRANCH  10  11
HETATM   11  C   UNL     1       2.716  -1.209  -2.148  1.00  0.00     0.194 C 
BRANCH  11  12
HETATM   12  O   UNL     1       3.206  -0.051  -2.813  1.00  0.00    -0.399 OA
HETATM   13  H   UNL     1       2.785   0.710  -2.366  1.00  0.00     0.209 HD
ENDBRANCH  11  12
ENDBRANCH  10  11
ENDBRANCH   1  10
TORSDOF 9
