REMARK  23 active torsions:
REMARK  status: ('A' for Active; 'I' for Inactive)
REMARK    1  A    between atoms: C_2  and  C_3 
REMARK    2  A    between atoms: C_3  and  C_4 
REMARK    3  A    between atoms: C_4  and  C_5 
REMARK    4  A    between atoms: C_5  and  C_6 
REMARK    5  A    between atoms: C_5  and  C_8 
REMARK    6  A    between atoms: C_8  and  O_10 
REMARK    7  A    between atoms: O_10  and  C_11 
REMARK    8  A    between atoms: C_11  and  C_12 
REMARK    9  A    between atoms: C_12  and  C_13 
REMARK   10  A    between atoms: C_12  and  O_24 
REMARK   11  A    between atoms: C_13  and  O_14 
REMARK   12  A    between atoms: O_14  and  C_15 
REMARK   13  A    between atoms: C_15  and  C_17 
REMARK   14  A    between atoms: C_17  and  C_18 
REMARK   15  A    between atoms: C_17  and  C_20 
REMARK   16  A    between atoms: C_20  and  C_21 
REMARK   17  A    between atoms: C_21  and  C_22 
REMARK   18  A    between atoms: O_24  and  C_25 
REMARK   19  A    between atoms: C_25  and  C_27 
REMARK   20  A    between atoms: C_27  and  C_28 
REMARK   21  A    between atoms: C_27  and  C_30 
REMARK   22  A    between atoms: C_30  and  C_31 
REMARK   23  A    between atoms: C_31  and  C_32 
ROOT
HETATM    1  C   UNL     1       9.126   4.610   2.954  1.00  0.00     0.180 C 
ENDROOT
BRANCH   1   2
HETATM    2  C   UNL     1       8.558   3.419   2.158  1.00  0.00     0.213 C 
BRANCH   2   3
HETATM    3  O   UNL     1       8.987   3.416   0.772  1.00  0.00    -0.319 OA
BRANCH   3   4
HETATM    4  C   UNL     1       8.170   4.060  -0.108  1.00  0.00     0.263 C 
HETATM    5  O   UNL     1       7.168   4.676   0.232  1.00  0.00    -0.265 OA
BRANCH   4   6
HETATM    6  C   UNL     1       8.685   3.984  -1.554  1.00  0.00     0.085 C 
BRANCH   6   7
HETATM    7  C   UNL     1       9.382   2.647  -1.926  1.00  0.00     0.014 C 
BRANCH   7   8
HETATM    8  C   UNL     1       9.901   2.651  -3.374  1.00  0.00     0.000 C 
BRANCH   8   9
HETATM    9  C   UNL     1      10.591   1.357  -3.803  1.00  0.00    -0.005 C 
HETATM   10  C   UNL     1      11.089   1.487  -5.240  1.00  0.00     0.005 C 
ENDBRANCH   8   9
ENDBRANCH   7   8
ENDBRANCH   6   7
BRANCH   6  11
HETATM   11  C   UNL     1       7.552   4.362  -2.541  1.00  0.00     0.010 C 
HETATM   12  C   UNL     1       6.403   3.357  -2.626  1.00  0.00     0.006 C 
ENDBRANCH   6  11
ENDBRANCH   4   6
ENDBRANCH   3   4
ENDBRANCH   2   3
ENDBRANCH   1   2
BRANCH   1  13
HETATM   13  C   UNL     1       8.677   4.546   4.426  1.00  0.00     0.213 C 
BRANCH  13  14
HETATM   14  O   UNL     1       9.142   5.690   5.182  1.00  0.00    -0.319 OA
BRANCH  14  15
HETATM   15  C   UNL     1       8.389   6.822   5.067  1.00  0.00     0.263 C 
HETATM   16  O   UNL     1       7.365   6.884   4.392  1.00  0.00    -0.265 OA
BRANCH  15  17
HETATM   17  C   UNL     1       8.996   7.979   5.854  1.00  0.00     0.085 C 
BRANCH  17  18
HETATM   18  C   UNL     1      10.432   8.234   5.357  1.00  0.00     0.010 C 
HETATM   19  C   UNL     1      10.496   8.663   3.893  1.00  0.00     0.006 C 
ENDBRANCH  17  18
BRANCH  17  20
HETATM   20  C   UNL     1       8.160   9.277   5.765  1.00  0.00     0.014 C 
BRANCH  20  21
HETATM   21  C   UNL     1       6.756   9.171   6.371  1.00  0.00     0.000 C 
BRANCH  21  22
HETATM   22  C   UNL     1       5.979  10.480   6.192  1.00  0.00    -0.005 C 
HETATM   23  C   UNL     1       4.555  10.340   6.707  1.00  0.00     0.005 C 
ENDBRANCH  21  22
ENDBRANCH  20  21
ENDBRANCH  17  20
ENDBRANCH  15  17
ENDBRANCH  14  15
ENDBRANCH  13  14
ENDBRANCH   1  13
BRANCH   1  24
HETATM   24  O   UNL     1      10.571   4.474   2.928  1.00  0.00    -0.311 OA
BRANCH  24  25
HETATM   25  C   UNL     1      11.205   5.109   1.906  1.00  0.00     0.263 C 
HETATM   26  O   UNL     1      10.716   5.992   1.209  1.00  0.00    -0.265 OA
BRANCH  25  27
HETATM   27  C   UNL     1      12.592   4.510   1.697  1.00  0.00     0.085 C 
BRANCH  27  28
HETATM   28  C   UNL     1      12.879   4.528   0.182  1.00  0.00     0.010 C 
HETATM   29  C   UNL     1      14.182   3.853  -0.220  1.00  0.00     0.006 C 
ENDBRANCH  27  28
BRANCH  27  30
HETATM   30  C   UNL     1      13.653   5.264   2.509  1.00  0.00     0.014 C 
BRANCH  30  31
HETATM   31  C   UNL     1      13.460   5.258   4.030  1.00  0.00     0.000 C 
BRANCH  31  32
HETATM   32  C   UNL     1      13.478   3.857   4.643  1.00  0.00    -0.005 C 
HETATM   33  C   UNL     1      13.325   3.915   6.154  1.00  0.00     0.005 C 
ENDBRANCH  31  32
ENDBRANCH  30  31
ENDBRANCH  27  30
ENDBRANCH  25  27
ENDBRANCH  24  25
ENDBRANCH   1  24
TORSDOF 23
