REMARK  7 active torsions:
REMARK  status: ('A' for Active; 'I' for Inactive)
REMARK    1  A    between atoms: SI_2  and  O_5 
REMARK    2  A    between atoms: O_5  and  O_6 
REMARK    3  A    between atoms: O_6  and  SI_7 
REMARK    4  A    between atoms: SI_7  and  O_8 
REMARK    5  A    between atoms: SI_7  and  O_10 
REMARK    6  A    between atoms: O_10  and  O_11 
REMARK    7  A    between atoms: O_11  and  SI_12 
ROOT
HETATM    1 SI   UNL     1       5.367   0.654   3.151  1.00  0.00     0.000 Si
ENDROOT
BRANCH   1   2
HETATM    2  O   UNL     1       4.815   0.371   1.597  1.00  0.00     0.000 OA
BRANCH   2   3
HETATM    3  O   UNL     1       3.361   0.392   1.507  1.00  0.00     0.000 OA
BRANCH   3   4
HETATM    4 SI   UNL     1       2.846   0.105  -0.064  1.00  0.00     0.000 Si
HETATM    5  C   UNL     1       0.970   0.121  -0.110  1.00  0.00     0.000 C 
HETATM    6  C   UNL     1       3.449  -1.554  -0.704  1.00  0.00     0.000 C 
HETATM    7  C   UNL     1       3.486   1.451  -1.210  1.00  0.00     0.000 C 
ENDBRANCH   3   4
ENDBRANCH   2   3
ENDBRANCH   1   2
BRANCH   1   8
HETATM    8  O   UNL     1       4.887  -0.371   4.093  1.00  0.00    -0.253 OA
ATOM      9  HO  UNL     1       5.200  -0.210   4.975  1.00  0.00     0.253 HD
ENDBRANCH   1   8
BRANCH   1  10
HETATM   10  O   UNL     1       7.039   0.714   3.157  1.00  0.00     0.000 OA
BRANCH  10  11
HETATM   11  O   UNL     1       7.560   1.772   2.297  1.00  0.00     0.000 OA
BRANCH  11  12
HETATM   12 SI   UNL     1       9.241   1.779   2.293  1.00  0.00     0.000 Si
HETATM   13  C   UNL     1       9.922   2.077   4.019  1.00  0.00     0.000 C 
HETATM   14  C   UNL     1       9.914   0.145   1.661  1.00  0.00     0.000 C 
HETATM   15  C   UNL     1       9.850   3.154   1.167  1.00  0.00     0.000 C 
ENDBRANCH  11  12
ENDBRANCH  10  11
ENDBRANCH   1  10
TORSDOF 7
