REMARK  10 active torsions:
REMARK  status: ('A' for Active; 'I' for Inactive)
REMARK    1  A    between atoms: C_2  and  C_3 
REMARK    2  A    between atoms: C_3  and  C_4 
REMARK    3  A    between atoms: C_4  and  C_5 
REMARK    4  A    between atoms: C_5  and  C_6 
REMARK    5  A    between atoms: C_6  and  C_7 
REMARK    6  A    between atoms: C_7  and  C_8 
REMARK    7  A    between atoms: C_8  and  SI_9 
REMARK    8  A    between atoms: SI_9  and  O_10 
REMARK    9  A    between atoms: SI_9  and  O_12 
REMARK   10  A    between atoms: SI_9  and  O_14 
ROOT
HETATM    1  C   UNL     1       8.703   3.023  -3.011  1.00  0.00     0.000 C 
ENDROOT
BRANCH   1   2
HETATM    2  C   UNL     1       7.176   2.866  -2.990  1.00  0.00     0.000 C 
BRANCH   2   3
HETATM    3  C   UNL     1       6.706   1.840  -1.963  1.00  0.00     0.000 C 
BRANCH   3   4
HETATM    4  C   UNL     1       7.118   2.281  -0.566  1.00  0.00     0.000 C 
BRANCH   4   5
HETATM    5  C   UNL     1       6.651   1.303   0.493  1.00  0.00     0.000 C 
BRANCH   5   6
HETATM    6  C   UNL     1       7.095   1.760   1.876  1.00  0.00    -0.000 C 
BRANCH   6   7
HETATM    7  C   UNL     1       6.616   0.766   2.933  1.00  0.00    -0.005 C 
HETATM    8  C   UNL     1       7.048   1.206   4.321  1.00  0.00     0.005 C 
ENDBRANCH   6   7
ENDBRANCH   5   6
ENDBRANCH   4   5
ENDBRANCH   3   4
ENDBRANCH   2   3
ENDBRANCH   1   2
BRANCH   1   9
HETATM    9 SI   UNL     1       9.314   4.306  -4.261  1.00  0.00     0.000 Si
BRANCH   9  10
HETATM   10  O   UNL     1      10.977   4.407  -4.203  1.00  0.00    -0.247 OA
HETATM   11  C   UNL     1      11.619   5.328  -5.073  1.00  0.00     0.247 C 
ENDBRANCH   9  10
BRANCH   9  12
HETATM   12  O   UNL     1       8.842   3.931  -5.815  1.00  0.00    -0.247 OA
HETATM   13  C   UNL     1       9.247   2.711  -6.411  1.00  0.00     0.247 C 
ENDBRANCH   9  12
BRANCH   9  14
HETATM   14  O   UNL     1       8.693   5.813  -3.889  1.00  0.00    -0.247 OA
HETATM   15  C   UNL     1       9.015   6.375  -2.628  1.00  0.00     0.247 C 
ENDBRANCH   9  14
ENDBRANCH   1   9
TORSDOF 10
