REMARK  6 active torsions:
REMARK  status: ('A' for Active; 'I' for Inactive)
REMARK    1  A    between atoms: CZ_3  and  OH_13 
REMARK    2  A    between atoms: CG_6  and  CB_7 
REMARK    3  A    between atoms: CB_7  and  CA_8 
REMARK    4  A    between atoms: CA_8  and  C_9 
REMARK    5  A    between atoms: CA_8  and  N_12 
REMARK    6  A    between atoms: C_9  and  OXT_11 
ROOT
ATOM      1  CB  TYR A   1      -3.290  -0.076  -0.117  1.00  0.00     0.085 C 
ENDROOT
BRANCH   1   2
ATOM      2  CG  TYR A   1      -1.780   0.012  -0.162  1.00  0.00    -0.055 A 
ATOM      3  CD2 TYR A   1      -1.025  -1.150  -0.402  1.00  0.00     0.010 A 
ATOM      4  CE2 TYR A   1       0.370  -1.111  -0.382  1.00  0.00     0.037 A 
ATOM      5  CZ  TYR A   1       1.016   0.092  -0.128  1.00  0.00     0.065 A 
ATOM      6  CE1 TYR A   1       0.291   1.256   0.094  1.00  0.00     0.037 A 
ATOM      7  CD1 TYR A   1      -1.106   1.215   0.091  1.00  0.00     0.010 A 
BRANCH   5   8
ATOM      8  OH  TYR A   1       2.375   0.170  -0.070  1.00  0.00    -0.361 OA
ATOM      9  HH  TYR A   1       2.740  -0.730  -0.114  1.00  0.00     0.217 HD
ENDBRANCH   5   8
ENDBRANCH   1   2
BRANCH   1  10
ATOM     10  CA  TYR A   1      -4.048   0.893  -1.041  1.00  0.00     0.318 C 
BRANCH  10  11
ATOM     11  C   TYR A   1      -3.893   0.528  -2.530  1.00  0.00     0.174 C 
ATOM     12  O   TYR A   1      -4.816   0.120  -3.227  1.00  0.00    -0.648 OA
BRANCH  11  13
ATOM     13  OXT TYR A   1      -2.664   0.748  -3.047  1.00  0.00    -0.775 OA
ATOM     14  HXT TYR A   1      -1.995   1.066  -2.411  1.00  0.00     0.167 HD
ENDBRANCH  11  13
ENDBRANCH  10  11
BRANCH  10  15
ATOM     15  N   TYR A   1      -5.491   0.839  -0.676  1.00  0.00     0.093 N 
ATOM     16  H1  TYR A   1      -5.839  -0.097  -0.917  1.00  0.00     0.314 HD
ATOM     17  H2  TYR A   1      -6.003   1.437  -1.329  1.00  0.00     0.314 HD
ENDBRANCH  10  15
ENDBRANCH   1  10
TORSDOF 6
