REMARK  8 active torsions:
REMARK  status: ('A' for Active; 'I' for Inactive)
REMARK    1  A    between atoms: C_2  and  C_3 
REMARK    2  A    between atoms: C_3  and  C_4 
REMARK    3  A    between atoms: C_4  and  C_5 
REMARK    4  A    between atoms: C_5  and  C_6 
REMARK    5  A    between atoms: C_6  and  C_7 
REMARK    6  A    between atoms: C_7  and  C_8 
REMARK    7  A    between atoms: C_8  and  C_9 
REMARK    8  A    between atoms: C_9  and  C_10 
ROOT
HETATM    1  C   UNL     1       6.606  -1.094  -2.553  1.00  0.00     0.000 C 
ENDROOT
BRANCH   1   2
HETATM    2  C   UNL     1       5.080  -1.087  -2.535  1.00  0.00     0.000 C 
BRANCH   2   3
HETATM    3  C   UNL     1       4.550  -0.535  -1.213  1.00  0.00     0.000 C 
BRANCH   3   4
HETATM    4  C   UNL     1       3.024  -0.532  -1.198  1.00  0.00    -0.000 C 
BRANCH   4   5
HETATM    5  C   UNL     1       2.486   0.021   0.119  1.00  0.00    -0.005 C 
HETATM    6  C   UNL     1       0.967   0.027   0.131  1.00  0.00     0.005 C 
ENDBRANCH   4   5
ENDBRANCH   3   4
ENDBRANCH   2   3
ENDBRANCH   1   2
BRANCH   1   7
HETATM    7  C   UNL     1       7.132  -1.646  -3.875  1.00  0.00     0.000 C 
BRANCH   7   8
HETATM    8  C   UNL     1       8.659  -1.655  -3.895  1.00  0.00     0.000 C 
BRANCH   8   9
HETATM    9  C   UNL     1       9.182  -2.207  -5.219  1.00  0.00    -0.000 C 
BRANCH   9  10
HETATM   10  C   UNL     1      10.709  -2.220  -5.248  1.00  0.00    -0.005 C 
HETATM   11  C   UNL     1      11.225  -2.768  -6.566  1.00  0.00     0.005 C 
ENDBRANCH   9  10
ENDBRANCH   8   9
ENDBRANCH   7   8
ENDBRANCH   1   7
TORSDOF 8
