REMARK  7 active torsions:
REMARK  status: ('A' for Active; 'I' for Inactive)
REMARK    1  A    between atoms: C_2  and  C_3 
REMARK    2  A    between atoms: C_3  and  C_4 
REMARK    3  A    between atoms: C_4  and  O_5 
REMARK    4  A    between atoms: O_5  and  C_6 
REMARK    5  A    between atoms: C_6  and  C_7 
REMARK    6  A    between atoms: C_9  and  O_14 
REMARK    7  A    between atoms: C_10  and  O_13 
ROOT
HETATM    1  C   UNL     1       6.824  -3.959  -1.557  1.00  0.00    -0.032 A 
HETATM    2  C   UNL     1       6.043  -5.117  -1.417  1.00  0.00     0.049 A 
HETATM    3  C   UNL     1       6.436  -6.359  -1.943  1.00  0.00     0.101 A 
HETATM    4  C   UNL     1       7.664  -6.429  -2.605  1.00  0.00     0.099 A 
HETATM    5  C   UNL     1       8.463  -5.286  -2.731  1.00  0.00     0.040 A 
HETATM    6  C   UNL     1       8.051  -4.059  -2.212  1.00  0.00     0.012 A 
ENDROOT
BRANCH   1   7
HETATM    7  C   UNL     1       6.388  -2.641  -0.969  1.00  0.00     0.206 C 
BRANCH   7   8
HETATM    8  O   UNL     1       4.964  -2.566  -0.956  1.00  0.00    -0.387 OA
BRANCH   8   9
HETATM    9  C   UNL     1       4.505  -1.339  -0.403  1.00  0.00     0.168 C 
BRANCH   9  10
HETATM   10  C   UNL     1       2.984  -1.350  -0.420  1.00  0.00     0.026 C 
BRANCH  10  11
HETATM   11  C   UNL     1       2.423  -0.053   0.152  1.00  0.00    -0.002 C 
HETATM   12  C   UNL     1       0.907  -0.048   0.143  1.00  0.00     0.005 C 
ENDBRANCH  10  11
ENDBRANCH   9  10
ENDBRANCH   8   9
ENDBRANCH   7   8
ENDBRANCH   1   7
BRANCH   3  13
HETATM   13  O   UNL     1       5.506  -7.324  -1.688  1.00  0.00    -0.353 OA
HETATM   14  C   UNL     1       5.696  -8.654  -2.122  1.00  0.00     0.210 C 
ENDBRANCH   3  13
BRANCH   4  15
HETATM   15  O   UNL     1       8.223  -7.541  -3.165  1.00  0.00    -0.358 OA
HETATM   16  H   UNL     1       7.529  -8.162  -3.409  1.00  0.00     0.217 HD
ENDBRANCH   4  15
TORSDOF 7
