REMARK  15 active torsions:
REMARK  status: ('A' for Active; 'I' for Inactive)
REMARK    1  A    between atoms: C_1  and  C_2 
REMARK    2  A    between atoms: C_1  and  O_21 
REMARK    3  A    between atoms: C_3  and  O_20 
REMARK    4  A    between atoms: C_4  and  O_19 
REMARK    5  A    between atoms: C_5  and  O_18 
REMARK    6  A    between atoms: C_6  and  O_8 
REMARK    7  A    between atoms: O_8  and  C_9 
REMARK    8  A    between atoms: C_9  and  C_10 
REMARK    9  A    between atoms: C_10  and  C_11 
REMARK   10  A    between atoms: C_10  and  O_17 
REMARK   11  A    between atoms: C_11  and  C_12 
REMARK   12  A    between atoms: C_11  and  O_16 
REMARK   13  A    between atoms: C_12  and  C_13 
REMARK   14  A    between atoms: C_12  and  O_15 
REMARK   15  A    between atoms: C_13  and  O_14 
ROOT
HETATM    1  C   UNL     1       0.493   1.083   0.732  1.00  0.00     0.179 C 
HETATM    2  C   UNL     1      -0.991   1.143   0.322  1.00  0.00     0.180 C 
HETATM    3  C   UNL     1      -1.142   1.712  -1.100  1.00  0.00     0.183 C 
HETATM    4  C   UNL     1      -0.420   3.055  -1.216  1.00  0.00     0.204 C 
HETATM    5  C   UNL     1       1.052   2.853  -0.818  1.00  0.00     0.291 C 
HETATM    6  O   UNL     1       1.166   2.343   0.508  1.00  0.00    -0.348 OA
ENDROOT
BRANCH   5   7
HETATM    7  O   UNL     1       1.693   4.125  -0.929  1.00  0.00    -0.356 OA
BRANCH   7   8
HETATM    8  C   UNL     1       3.079   4.125  -0.585  1.00  0.00     0.205 C 
BRANCH   8   9
HETATM    9  C   UNL     1       3.978   3.250  -1.477  1.00  0.00     0.173 C 
BRANCH   9  10
HETATM   10  C   UNL     1       4.021   3.677  -2.961  1.00  0.00     0.179 C 
BRANCH  10  11
HETATM   11  C   UNL     1       4.870   2.724  -3.831  1.00  0.00     0.173 C 
BRANCH  11  12
HETATM   12  C   UNL     1       4.359   1.277  -3.865  1.00  0.00     0.198 C 
BRANCH  12  13
HETATM   13  O   UNL     1       5.176   0.498  -4.736  1.00  0.00    -0.398 OA
HETATM   14  H   UNL     1       5.411   1.090  -5.480  1.00  0.00     0.209 HD
ENDBRANCH  12  13
ENDBRANCH  11  12
BRANCH  11  15
HETATM   15  O   UNL     1       4.853   3.200  -5.193  1.00  0.00    -0.391 OA
HETATM   16  H   UNL     1       3.949   3.544  -5.346  1.00  0.00     0.210 HD
ENDBRANCH  11  15
ENDBRANCH  10  11
BRANCH  10  17
HETATM   17  O   UNL     1       2.730   3.811  -3.572  1.00  0.00    -0.390 OA
HETATM   18  H   UNL     1       2.177   3.055  -3.328  1.00  0.00     0.210 HD
ENDBRANCH  10  17
ENDBRANCH   9  10
BRANCH   9  19
HETATM   19  O   UNL     1       5.302   3.224  -0.938  1.00  0.00    -0.391 OA
HETATM   20  H   UNL     1       5.649   4.135  -0.906  1.00  0.00     0.210 HD
ENDBRANCH   9  19
ENDBRANCH   8   9
ENDBRANCH   7   8
ENDBRANCH   5   7
BRANCH   4  21
HETATM   21  O   UNL     1      -1.034   4.018  -0.330  1.00  0.00    -0.388 OA
HETATM   22  H   UNL     1      -0.399   4.764  -0.289  1.00  0.00     0.210 HD
ENDBRANCH   4  21
BRANCH   3  23
HETATM   23  O   UNL     1      -2.522   1.864  -1.433  1.00  0.00    -0.390 OA
HETATM   24  H   UNL     1      -2.897   2.445  -0.744  1.00  0.00     0.210 HD
ENDBRANCH   3  23
BRANCH   1  25
HETATM   25  C   UNL     1       1.257  -0.057   0.040  1.00  0.00     0.198 C 
BRANCH  25  26
HETATM   26  O   UNL     1       2.635  -0.037   0.404  1.00  0.00    -0.398 OA
HETATM   27  H   UNL     1       2.872   0.879   0.644  1.00  0.00     0.209 HD
ENDBRANCH  25  26
ENDBRANCH   1  25
BRANCH   2  28
HETATM   28  O   UNL     1      -1.710   1.975   1.251  1.00  0.00    -0.390 OA
HETATM   29  H   UNL     1      -1.451   2.904   1.075  1.00  0.00     0.210 HD
ENDBRANCH   2  28
TORSDOF 15
