MODEL 1
REMARK VINA RESULT:      -8.5      0.000      0.000
REMARK  10 active torsions:
REMARK  status: ('A' for Active; 'I' for Inactive)
REMARK    1  A    between atoms: O_2  and  C_3 
REMARK    2  A    between atoms: C_5  and  C_6 
REMARK    3  A    between atoms: C_6  and  N_7 
REMARK       I    between atoms: N_7  and  C_8 
REMARK    4  A    between atoms: C_8  and  C_10 
REMARK    5  A    between atoms: C_10  and  C_11 
REMARK    6  A    between atoms: C_11  and  C_12 
REMARK    7  A    between atoms: C_12  and  C_13 
REMARK    8  A    between atoms: C_13  and  C_14 
REMARK    9  A    between atoms: C_15  and  C_16 
REMARK   10  A    between atoms: C_21  and  O_22 
ROOT
HETATM    1  N   UNL     1     -21.367  -4.711  -6.431  1.00  0.00    -0.357 N 
HETATM    2  C   UNL     1     -21.280  -6.047  -6.121  1.00  0.00     0.217 C 
HETATM    3  O   UNL     1     -20.446  -6.801  -6.618  1.00  0.00    -0.274 OA
HETATM    4  H   UNL     1     -22.020  -4.123  -5.934  1.00  0.00     0.162 HD
ENDROOT
BRANCH   1   5
HETATM    5  C   UNL     1     -20.441  -4.081  -7.346  1.00  0.00     0.161 C 
BRANCH   5   6
HETATM    6  C   UNL     1     -20.928  -4.116  -8.774  1.00  0.00    -0.038 A 
HETATM    7  C   UNL     1     -22.269  -3.808  -9.071  1.00  0.00     0.048 A 
HETATM    8  C   UNL     1     -22.732  -3.791 -10.391  1.00  0.00     0.101 A 
HETATM    9  C   UNL     1     -21.836  -4.108 -11.421  1.00  0.00     0.099 A 
HETATM   10  C   UNL     1     -20.508  -4.435 -11.144  1.00  0.00     0.040 A 
HETATM   11  C   UNL     1     -20.057  -4.441  -9.822  1.00  0.00     0.012 A 
BRANCH   8  12
HETATM   12  O   UNL     1     -24.010  -3.478 -10.774  1.00  0.00    -0.353 OA
HETATM   13  C   UNL     1     -24.964  -3.262  -9.744  1.00  0.00     0.210 C 
ENDBRANCH   8  12
BRANCH   9  14
HETATM   14  O   UNL     1     -22.274  -4.093 -12.719  1.00  0.00    -0.358 OA
HETATM   15  H   UNL     1     -22.388  -5.005 -13.027  1.00  0.00     0.217 HD
ENDBRANCH   9  14
ENDBRANCH   5   6
ENDBRANCH   1   5
BRANCH   2  16
HETATM   16  C   UNL     1     -22.355  -6.525  -5.159  1.00  0.00     0.103 C 
BRANCH  16  17
HETATM   17  C   UNL     1     -21.768  -7.470  -4.112  1.00  0.00     0.010 C 
BRANCH  17  18
HETATM   18  C   UNL     1     -21.117  -6.719  -2.950  1.00  0.00     0.004 C 
BRANCH  18  19
HETATM   19  C   UNL     1     -22.190  -6.170  -2.004  1.00  0.00     0.027 C 
BRANCH  19  20
HETATM   20  C   UNL     1     -22.362  -7.036  -0.789  1.00  0.00    -0.030 C 
HETATM   21  C   UNL     1     -21.658  -8.158  -0.570  1.00  0.00    -0.027 C 
BRANCH  21  22
HETATM   22  C   UNL     1     -21.849  -9.048   0.633  1.00  0.00    -0.001 C 
HETATM   23  C   UNL     1     -21.734 -10.517   0.225  1.00  0.00     0.013 C 
HETATM   24  C   UNL     1     -20.822  -8.707   1.711  1.00  0.00     0.013 C 
ENDBRANCH  21  22
ENDBRANCH  19  20
ENDBRANCH  18  19
ENDBRANCH  17  18
ENDBRANCH  16  17
ENDBRANCH   2  16
TORSDOF 10
ENDMDL
MODEL 2
REMARK VINA RESULT:      -8.2      1.239      1.558
REMARK  10 active torsions:
REMARK  status: ('A' for Active; 'I' for Inactive)
REMARK    1  A    between atoms: O_2  and  C_3 
REMARK    2  A    between atoms: C_5  and  C_6 
REMARK    3  A    between atoms: C_6  and  N_7 
REMARK       I    between atoms: N_7  and  C_8 
REMARK    4  A    between atoms: C_8  and  C_10 
REMARK    5  A    between atoms: C_10  and  C_11 
REMARK    6  A    between atoms: C_11  and  C_12 
REMARK    7  A    between atoms: C_12  and  C_13 
REMARK    8  A    between atoms: C_13  and  C_14 
REMARK    9  A    between atoms: C_15  and  C_16 
REMARK   10  A    between atoms: C_21  and  O_22 
ROOT
HETATM    1  N   UNL     1     -20.393  -5.291  -6.413  1.00  0.00    -0.357 N 
HETATM    2  C   UNL     1     -21.143  -6.161  -5.659  1.00  0.00     0.217 C 
HETATM    3  O   UNL     1     -22.301  -5.932  -5.319  1.00  0.00    -0.274 OA
HETATM    4  H   UNL     1     -19.474  -5.567  -6.729  1.00  0.00     0.162 HD
ENDROOT
BRANCH   1   5
HETATM    5  C   UNL     1     -20.937  -4.044  -6.903  1.00  0.00     0.161 C 
BRANCH   5   6
HETATM    6  C   UNL     1     -21.171  -4.063  -8.394  1.00  0.00    -0.038 A 
HETATM    7  C   UNL     1     -22.433  -3.722  -8.915  1.00  0.00     0.048 A 
HETATM    8  C   UNL     1     -22.660  -3.690 -10.295  1.00  0.00     0.101 A 
HETATM    9  C   UNL     1     -21.607  -4.025 -11.157  1.00  0.00     0.099 A 
HETATM   10  C   UNL     1     -20.356  -4.384 -10.657  1.00  0.00     0.040 A 
HETATM   11  C   UNL     1     -20.140  -4.406  -9.278  1.00  0.00     0.012 A 
BRANCH   8  12
HETATM   12  O   UNL     1     -23.845  -3.344 -10.891  1.00  0.00    -0.353 OA
HETATM   13  C   UNL     1     -25.003  -3.314 -10.068  1.00  0.00     0.210 C 
ENDBRANCH   8  12
BRANCH   9  14
HETATM   14  O   UNL     1     -21.814  -3.995 -12.512  1.00  0.00    -0.358 OA
HETATM   15  H   UNL     1     -20.968  -4.126 -12.965  1.00  0.00     0.217 HD
ENDBRANCH   9  14
ENDBRANCH   5   6
ENDBRANCH   1   5
BRANCH   2  16
HETATM   16  C   UNL     1     -20.386  -7.405  -5.222  1.00  0.00     0.103 C 
BRANCH  16  17
HETATM   17  C   UNL     1     -21.333  -8.595  -5.076  1.00  0.00     0.010 C 
BRANCH  17  18
HETATM   18  C   UNL     1     -21.188  -9.291  -3.723  1.00  0.00     0.004 C 
BRANCH  18  19
HETATM   19  C   UNL     1     -19.961  -8.757  -2.977  1.00  0.00     0.027 C 
BRANCH  19  20
HETATM   20  C   UNL     1     -20.293  -8.354  -1.569  1.00  0.00    -0.030 C 
HETATM   21  C   UNL     1     -21.542  -8.330  -1.077  1.00  0.00    -0.027 C 
BRANCH  21  22
HETATM   22  C   UNL     1     -21.883  -7.896   0.327  1.00  0.00    -0.001 C 
HETATM   23  C   UNL     1     -23.376  -8.091   0.590  1.00  0.00     0.013 C 
HETATM   24  C   UNL     1     -21.051  -8.681   1.339  1.00  0.00     0.013 C 
ENDBRANCH  21  22
ENDBRANCH  19  20
ENDBRANCH  18  19
ENDBRANCH  17  18
ENDBRANCH  16  17
ENDBRANCH   2  16
TORSDOF 10
ENDMDL
MODEL 3
REMARK VINA RESULT:      -7.9      1.228      1.550
REMARK  10 active torsions:
REMARK  status: ('A' for Active; 'I' for Inactive)
REMARK    1  A    between atoms: O_2  and  C_3 
REMARK    2  A    between atoms: C_5  and  C_6 
REMARK    3  A    between atoms: C_6  and  N_7 
REMARK       I    between atoms: N_7  and  C_8 
REMARK    4  A    between atoms: C_8  and  C_10 
REMARK    5  A    between atoms: C_10  and  C_11 
REMARK    6  A    between atoms: C_11  and  C_12 
REMARK    7  A    between atoms: C_12  and  C_13 
REMARK    8  A    between atoms: C_13  and  C_14 
REMARK    9  A    between atoms: C_15  and  C_16 
REMARK   10  A    between atoms: C_21  and  O_22 
ROOT
HETATM    1  N   UNL     1     -20.635  -5.715  -6.409  1.00  0.00    -0.357 N 
HETATM    2  C   UNL     1     -21.701  -6.320  -5.788  1.00  0.00     0.217 C 
HETATM    3  O   UNL     1     -22.762  -5.744  -5.557  1.00  0.00    -0.274 OA
HETATM    4  H   UNL     1     -19.817  -6.260  -6.643  1.00  0.00     0.162 HD
ENDROOT
BRANCH   1   5
HETATM    5  C   UNL     1     -20.704  -4.350  -6.880  1.00  0.00     0.161 C 
BRANCH   5   6
HETATM    6  C   UNL     1     -20.985  -4.264  -8.360  1.00  0.00    -0.038 A 
HETATM    7  C   UNL     1     -22.225  -3.779  -8.817  1.00  0.00     0.048 A 
HETATM    8  C   UNL     1     -22.491  -3.649 -10.184  1.00  0.00     0.101 A 
HETATM    9  C   UNL     1     -21.503  -4.033 -11.100  1.00  0.00     0.099 A 
HETATM   10  C   UNL     1     -20.276  -4.535 -10.666  1.00  0.00     0.040 A 
HETATM   11  C   UNL     1     -20.020  -4.652  -9.298  1.00  0.00     0.012 A 
BRANCH   8  12
HETATM   12  O   UNL     1     -23.656  -3.162 -10.717  1.00  0.00    -0.353 OA
HETATM   13  C   UNL     1     -24.862  -3.463 -10.030  1.00  0.00     0.210 C 
ENDBRANCH   8  12
BRANCH   9  14
HETATM   14  O   UNL     1     -21.748  -3.908 -12.442  1.00  0.00    -0.358 OA
HETATM   15  H   UNL     1     -20.938  -4.112 -12.934  1.00  0.00     0.217 HD
ENDBRANCH   9  14
ENDBRANCH   5   6
ENDBRANCH   1   5
BRANCH   2  16
HETATM   16  C   UNL     1     -21.425  -7.749  -5.347  1.00  0.00     0.103 C 
BRANCH  16  17
HETATM   17  C   UNL     1     -20.563  -7.772  -4.086  1.00  0.00     0.010 C 
BRANCH  17  18
HETATM   18  C   UNL     1     -21.382  -7.541  -2.816  1.00  0.00     0.004 C 
BRANCH  18  19
HETATM   19  C   UNL     1     -20.545  -7.870  -1.576  1.00  0.00     0.027 C 
BRANCH  19  20
HETATM   20  C   UNL     1     -21.195  -8.922  -0.725  1.00  0.00    -0.030 C 
HETATM   21  C   UNL     1     -22.344  -9.537  -1.049  1.00  0.00    -0.027 C 
BRANCH  21  22
HETATM   22  C   UNL     1     -23.017 -10.572  -0.182  1.00  0.00    -0.001 C 
HETATM   23  C   UNL     1     -24.071 -11.329  -0.989  1.00  0.00     0.013 C 
HETATM   24  C   UNL     1     -21.981 -11.536   0.390  1.00  0.00     0.013 C 
ENDBRANCH  21  22
ENDBRANCH  19  20
ENDBRANCH  18  19
ENDBRANCH  17  18
ENDBRANCH  16  17
ENDBRANCH   2  16
TORSDOF 10
ENDMDL
MODEL 4
REMARK VINA RESULT:      -7.5      3.167      3.791
REMARK  10 active torsions:
REMARK  status: ('A' for Active; 'I' for Inactive)
REMARK    1  A    between atoms: O_2  and  C_3 
REMARK    2  A    between atoms: C_5  and  C_6 
REMARK    3  A    between atoms: C_6  and  N_7 
REMARK       I    between atoms: N_7  and  C_8 
REMARK    4  A    between atoms: C_8  and  C_10 
REMARK    5  A    between atoms: C_10  and  C_11 
REMARK    6  A    between atoms: C_11  and  C_12 
REMARK    7  A    between atoms: C_12  and  C_13 
REMARK    8  A    between atoms: C_13  and  C_14 
REMARK    9  A    between atoms: C_15  and  C_16 
REMARK   10  A    between atoms: C_21  and  O_22 
ROOT
HETATM    1  N   UNL     1     -20.670  -5.791  -6.532  1.00  0.00    -0.357 N 
HETATM    2  C   UNL     1     -21.665  -6.367  -5.778  1.00  0.00     0.217 C 
HETATM    3  O   UNL     1     -22.665  -5.759  -5.405  1.00  0.00    -0.274 OA
HETATM    4  H   UNL     1     -19.910  -6.360  -6.877  1.00  0.00     0.162 HD
ENDROOT
BRANCH   1   5
HETATM    5  C   UNL     1     -20.754  -4.419  -6.981  1.00  0.00     0.161 C 
BRANCH   5   6
HETATM    6  C   UNL     1     -21.022  -4.312  -8.463  1.00  0.00    -0.038 A 
HETATM    7  C   UNL     1     -22.280  -3.879  -8.924  1.00  0.00     0.048 A 
HETATM    8  C   UNL     1     -22.536  -3.731 -10.291  1.00  0.00     0.101 A 
HETATM    9  C   UNL     1     -21.519  -4.043 -11.203  1.00  0.00     0.099 A 
HETATM   10  C   UNL     1     -20.273  -4.493 -10.765  1.00  0.00     0.040 A 
HETATM   11  C   UNL     1     -20.028  -4.630  -9.397  1.00  0.00     0.012 A 
BRANCH   8  12
HETATM   12  O   UNL     1     -23.717  -3.290 -10.828  1.00  0.00    -0.353 OA
HETATM   13  C   UNL     1     -24.859  -3.299  -9.984  1.00  0.00     0.210 C 
ENDBRANCH   8  12
BRANCH   9  14
HETATM   14  O   UNL     1     -21.754  -3.900 -12.545  1.00  0.00    -0.358 OA
HETATM   15  H   UNL     1     -21.167  -4.494 -13.037  1.00  0.00     0.217 HD
ENDBRANCH   9  14
ENDBRANCH   5   6
ENDBRANCH   1   5
BRANCH   2  16
HETATM   16  C   UNL     1     -21.381  -7.809  -5.387  1.00  0.00     0.103 C 
BRANCH  16  17
HETATM   17  C   UNL     1     -20.674  -7.877  -4.036  1.00  0.00     0.010 C 
BRANCH  17  18
HETATM   18  C   UNL     1     -20.024  -9.238  -3.786  1.00  0.00     0.004 C 
BRANCH  18  19
HETATM   19  C   UNL     1     -19.101  -9.171  -2.564  1.00  0.00     0.027 C 
BRANCH  19  20
HETATM   20  C   UNL     1     -17.704  -9.612  -2.892  1.00  0.00    -0.030 C 
HETATM   21  C   UNL     1     -17.202  -9.628  -4.138  1.00  0.00    -0.027 C 
BRANCH  21  22
HETATM   22  C   UNL     1     -15.810 -10.100  -4.476  1.00  0.00    -0.001 C 
HETATM   23  C   UNL     1     -15.420 -11.277  -3.582  1.00  0.00     0.013 C 
HETATM   24  C   UNL     1     -15.730 -10.493  -5.949  1.00  0.00     0.013 C 
ENDBRANCH  21  22
ENDBRANCH  19  20
ENDBRANCH  18  19
ENDBRANCH  17  18
ENDBRANCH  16  17
ENDBRANCH   2  16
TORSDOF 10
ENDMDL
MODEL 5
REMARK VINA RESULT:      -7.5     13.492     15.296
REMARK  10 active torsions:
REMARK  status: ('A' for Active; 'I' for Inactive)
REMARK    1  A    between atoms: O_2  and  C_3 
REMARK    2  A    between atoms: C_5  and  C_6 
REMARK    3  A    between atoms: C_6  and  N_7 
REMARK       I    between atoms: N_7  and  C_8 
REMARK    4  A    between atoms: C_8  and  C_10 
REMARK    5  A    between atoms: C_10  and  C_11 
REMARK    6  A    between atoms: C_11  and  C_12 
REMARK    7  A    between atoms: C_12  and  C_13 
REMARK    8  A    between atoms: C_13  and  C_14 
REMARK    9  A    between atoms: C_15  and  C_16 
REMARK   10  A    between atoms: C_21  and  O_22 
ROOT
HETATM    1  N   UNL     1     -33.193  -4.507 -15.243  1.00  0.00    -0.357 N 
HETATM    2  C   UNL     1     -34.111  -3.844 -14.464  1.00  0.00     0.217 C 
HETATM    3  O   UNL     1     -34.721  -2.848 -14.842  1.00  0.00    -0.274 OA
HETATM    4  H   UNL     1     -32.780  -5.366 -14.910  1.00  0.00     0.162 HD
ENDROOT
BRANCH   1   5
HETATM    5  C   UNL     1     -32.909  -4.095 -16.600  1.00  0.00     0.161 C 
BRANCH   5   6
HETATM    6  C   UNL     1     -31.531  -4.511 -17.053  1.00  0.00    -0.038 A 
HETATM    7  C   UNL     1     -31.189  -5.875 -17.113  1.00  0.00     0.048 A 
HETATM    8  C   UNL     1     -29.933  -6.286 -17.571  1.00  0.00     0.101 A 
HETATM    9  C   UNL     1     -29.005  -5.309 -17.953  1.00  0.00     0.099 A 
HETATM   10  C   UNL     1     -29.319  -3.951 -17.881  1.00  0.00     0.040 A 
HETATM   11  C   UNL     1     -30.579  -3.555 -17.429  1.00  0.00     0.012 A 
BRANCH   8  12
HETATM   12  O   UNL     1     -29.525  -7.589 -17.689  1.00  0.00    -0.353 OA
HETATM   13  C   UNL     1     -29.903  -8.286 -18.868  1.00  0.00     0.210 C 
ENDBRANCH   8  12
BRANCH   9  14
HETATM   14  O   UNL     1     -27.771  -5.696 -18.407  1.00  0.00    -0.358 OA
HETATM   15  H   UNL     1     -27.372  -6.302 -17.764  1.00  0.00     0.217 HD
ENDBRANCH   9  14
ENDBRANCH   5   6
ENDBRANCH   1   5
BRANCH   2  16
HETATM   16  C   UNL     1     -34.251  -4.416 -13.062  1.00  0.00     0.103 C 
BRANCH  16  17
HETATM   17  C   UNL     1     -32.974  -4.197 -12.255  1.00  0.00     0.010 C 
BRANCH  17  18
HETATM   18  C   UNL     1     -33.082  -3.004 -11.305  1.00  0.00     0.004 C 
BRANCH  18  19
HETATM   19  C   UNL     1     -34.491  -2.924 -10.708  1.00  0.00     0.027 C 
BRANCH  19  20
HETATM   20  C   UNL     1     -35.232  -1.708 -11.183  1.00  0.00    -0.030 C 
HETATM   21  C   UNL     1     -34.817  -0.932 -12.197  1.00  0.00    -0.027 C 
BRANCH  21  22
HETATM   22  C   UNL     1     -35.542   0.308 -12.657  1.00  0.00    -0.001 C 
HETATM   23  C   UNL     1     -34.699   1.059 -13.689  1.00  0.00     0.013 C 
HETATM   24  C   UNL     1     -36.903  -0.062 -13.241  1.00  0.00     0.013 C 
ENDBRANCH  21  22
ENDBRANCH  19  20
ENDBRANCH  18  19
ENDBRANCH  17  18
ENDBRANCH  16  17
ENDBRANCH   2  16
TORSDOF 10
ENDMDL
MODEL 6
REMARK VINA RESULT:      -7.3     12.840     15.224
REMARK  10 active torsions:
REMARK  status: ('A' for Active; 'I' for Inactive)
REMARK    1  A    between atoms: O_2  and  C_3 
REMARK    2  A    between atoms: C_5  and  C_6 
REMARK    3  A    between atoms: C_6  and  N_7 
REMARK       I    between atoms: N_7  and  C_8 
REMARK    4  A    between atoms: C_8  and  C_10 
REMARK    5  A    between atoms: C_10  and  C_11 
REMARK    6  A    between atoms: C_11  and  C_12 
REMARK    7  A    between atoms: C_12  and  C_13 
REMARK    8  A    between atoms: C_13  and  C_14 
REMARK    9  A    between atoms: C_15  and  C_16 
REMARK   10  A    between atoms: C_21  and  O_22 
ROOT
HETATM    1  N   UNL     1     -33.516  -3.396 -17.148  1.00  0.00    -0.357 N 
HETATM    2  C   UNL     1     -34.375  -2.847 -16.226  1.00  0.00     0.217 C 
HETATM    3  O   UNL     1     -34.657  -3.390 -15.162  1.00  0.00    -0.274 OA
HETATM    4  H   UNL     1     -33.260  -2.868 -17.970  1.00  0.00     0.162 HD
ENDROOT
BRANCH   1   5
HETATM    5  C   UNL     1     -32.841  -4.651 -16.905  1.00  0.00     0.161 C 
BRANCH   5   6
HETATM    6  C   UNL     1     -31.341  -4.496 -16.842  1.00  0.00    -0.038 A 
HETATM    7  C   UNL     1     -30.574  -5.367 -16.043  1.00  0.00     0.048 A 
HETATM    8  C   UNL     1     -29.179  -5.270 -16.004  1.00  0.00     0.101 A 
HETATM    9  C   UNL     1     -28.553  -4.271 -16.762  1.00  0.00     0.099 A 
HETATM   10  C   UNL     1     -29.298  -3.387 -17.542  1.00  0.00     0.040 A 
HETATM   11  C   UNL     1     -30.690  -3.499 -17.579  1.00  0.00     0.012 A 
BRANCH   8  12
HETATM   12  O   UNL     1     -28.353  -6.088 -15.279  1.00  0.00    -0.353 OA
HETATM   13  C   UNL     1     -28.191  -7.422 -15.740  1.00  0.00     0.210 C 
ENDBRANCH   8  12
BRANCH   9  14
HETATM   14  O   UNL     1     -27.187  -4.166 -16.735  1.00  0.00    -0.358 OA
HETATM   15  H   UNL     1     -26.858  -4.072 -17.642  1.00  0.00     0.217 HD
ENDBRANCH   9  14
ENDBRANCH   5   6
ENDBRANCH   1   5
BRANCH   2  16
HETATM   16  C   UNL     1     -35.002  -1.536 -16.676  1.00  0.00     0.103 C 
BRANCH  16  17
HETATM   17  C   UNL     1     -35.809  -0.903 -15.544  1.00  0.00     0.010 C 
BRANCH  17  18
HETATM   18  C   UNL     1     -34.991   0.110 -14.742  1.00  0.00     0.004 C 
BRANCH  18  19
HETATM   19  C   UNL     1     -35.454   0.130 -13.282  1.00  0.00     0.027 C 
BRANCH  19  20
HETATM   20  C   UNL     1     -34.743  -0.901 -12.454  1.00  0.00    -0.030 C 
HETATM   21  C   UNL     1     -35.373  -1.861 -11.759  1.00  0.00    -0.027 C 
BRANCH  21  22
HETATM   22  C   UNL     1     -34.665  -2.880 -10.900  1.00  0.00    -0.001 C 
HETATM   23  C   UNL     1     -35.412  -4.213 -10.940  1.00  0.00     0.013 C 
HETATM   24  C   UNL     1     -33.223  -3.056 -11.372  1.00  0.00     0.013 C 
ENDBRANCH  21  22
ENDBRANCH  19  20
ENDBRANCH  18  19
ENDBRANCH  17  18
ENDBRANCH  16  17
ENDBRANCH   2  16
TORSDOF 10
ENDMDL
MODEL 7
REMARK VINA RESULT:      -7.1      2.765      9.683
REMARK  10 active torsions:
REMARK  status: ('A' for Active; 'I' for Inactive)
REMARK    1  A    between atoms: O_2  and  C_3 
REMARK    2  A    between atoms: C_5  and  C_6 
REMARK    3  A    between atoms: C_6  and  N_7 
REMARK       I    between atoms: N_7  and  C_8 
REMARK    4  A    between atoms: C_8  and  C_10 
REMARK    5  A    between atoms: C_10  and  C_11 
REMARK    6  A    between atoms: C_11  and  C_12 
REMARK    7  A    between atoms: C_12  and  C_13 
REMARK    8  A    between atoms: C_13  and  C_14 
REMARK    9  A    between atoms: C_15  and  C_16 
REMARK   10  A    between atoms: C_21  and  O_22 
ROOT
HETATM    1  N   UNL     1     -21.062  -6.270  -3.476  1.00  0.00    -0.357 N 
HETATM    2  C   UNL     1     -21.355  -6.683  -4.754  1.00  0.00     0.217 C 
HETATM    3  O   UNL     1     -22.439  -7.162  -5.075  1.00  0.00    -0.274 OA
HETATM    4  H   UNL     1     -20.182  -5.812  -3.287  1.00  0.00     0.162 HD
ENDROOT
BRANCH   1   5
HETATM    5  C   UNL     1     -22.041  -6.333  -2.414  1.00  0.00     0.161 C 
BRANCH   5   6
HETATM    6  C   UNL     1     -21.798  -7.489  -1.474  1.00  0.00    -0.038 A 
HETATM    7  C   UNL     1     -21.128  -8.641  -1.929  1.00  0.00     0.048 A 
HETATM    8  C   UNL     1     -20.854  -9.706  -1.065  1.00  0.00     0.101 A 
HETATM    9  C   UNL     1     -21.279  -9.616   0.268  1.00  0.00     0.099 A 
HETATM   10  C   UNL     1     -21.962  -8.492   0.731  1.00  0.00     0.040 A 
HETATM   11  C   UNL     1     -22.223  -7.432  -0.141  1.00  0.00     0.012 A 
BRANCH   8  12
HETATM   12  O   UNL     1     -20.184 -10.850  -1.412  1.00  0.00    -0.353 OA
HETATM   13  C   UNL     1     -18.870 -10.703  -1.930  1.00  0.00     0.210 C 
ENDBRANCH   8  12
BRANCH   9  14
HETATM   14  O   UNL     1     -21.014 -10.651   1.127  1.00  0.00    -0.358 OA
HETATM   15  H   UNL     1     -20.104 -10.570   1.451  1.00  0.00     0.217 HD
ENDBRANCH   9  14
ENDBRANCH   5   6
ENDBRANCH   1   5
BRANCH   2  16
HETATM   16  C   UNL     1     -20.189  -6.558  -5.722  1.00  0.00     0.103 C 
BRANCH  16  17
HETATM   17  C   UNL     1     -20.607  -5.807  -6.984  1.00  0.00     0.010 C 
BRANCH  17  18
HETATM   18  C   UNL     1     -19.754  -4.562  -7.230  1.00  0.00     0.004 C 
BRANCH  18  19
HETATM   19  C   UNL     1     -20.088  -3.950  -8.595  1.00  0.00     0.027 C 
BRANCH  19  20
HETATM   20  C   UNL     1     -21.348  -4.525  -9.174  1.00  0.00    -0.030 C 
HETATM   21  C   UNL     1     -22.463  -3.809  -9.388  1.00  0.00    -0.027 C 
BRANCH  21  22
HETATM   22  C   UNL     1     -23.742  -4.388  -9.940  1.00  0.00    -0.001 C 
HETATM   23  C   UNL     1     -24.876  -3.371  -9.820  1.00  0.00     0.013 C 
HETATM   24  C   UNL     1     -23.546  -4.807 -11.395  1.00  0.00     0.013 C 
ENDBRANCH  21  22
ENDBRANCH  19  20
ENDBRANCH  18  19
ENDBRANCH  17  18
ENDBRANCH  16  17
ENDBRANCH   2  16
TORSDOF 10
ENDMDL
MODEL 8
REMARK VINA RESULT:      -7.1     13.527     16.078
REMARK  10 active torsions:
REMARK  status: ('A' for Active; 'I' for Inactive)
REMARK    1  A    between atoms: O_2  and  C_3 
REMARK    2  A    between atoms: C_5  and  C_6 
REMARK    3  A    between atoms: C_6  and  N_7 
REMARK       I    between atoms: N_7  and  C_8 
REMARK    4  A    between atoms: C_8  and  C_10 
REMARK    5  A    between atoms: C_10  and  C_11 
REMARK    6  A    between atoms: C_11  and  C_12 
REMARK    7  A    between atoms: C_12  and  C_13 
REMARK    8  A    between atoms: C_13  and  C_14 
REMARK    9  A    between atoms: C_15  and  C_16 
REMARK   10  A    between atoms: C_21  and  O_22 
ROOT
HETATM    1  N   UNL     1     -32.857  -4.448 -15.664  1.00  0.00    -0.357 N 
HETATM    2  C   UNL     1     -32.455  -3.842 -16.830  1.00  0.00     0.217 C 
HETATM    3  O   UNL     1     -33.157  -3.053 -17.456  1.00  0.00    -0.274 OA
HETATM    4  H   UNL     1     -32.208  -5.028 -15.151  1.00  0.00     0.162 HD
ENDROOT
BRANCH   1   5
HETATM    5  C   UNL     1     -34.139  -4.161 -15.060  1.00  0.00     0.161 C 
BRANCH   5   6
HETATM    6  C   UNL     1     -34.007  -3.546 -13.688  1.00  0.00    -0.038 A 
HETATM    7  C   UNL     1     -34.704  -2.365 -13.373  1.00  0.00     0.048 A 
HETATM    8  C   UNL     1     -34.630  -1.802 -12.094  1.00  0.00     0.101 A 
HETATM    9  C   UNL     1     -33.828  -2.427 -11.130  1.00  0.00     0.099 A 
HETATM   10  C   UNL     1     -33.115  -3.588 -11.431  1.00  0.00     0.040 A 
HETATM   11  C   UNL     1     -33.203  -4.143 -12.709  1.00  0.00     0.012 A 
BRANCH   8  12
HETATM   12  O   UNL     1     -35.294  -0.673 -11.691  1.00  0.00    -0.353 OA
HETATM   13  C   UNL     1     -35.336   0.417 -12.601  1.00  0.00     0.210 C 
ENDBRANCH   8  12
BRANCH   9  14
HETATM   14  O   UNL     1     -33.750  -1.889  -9.872  1.00  0.00    -0.358 OA
HETATM   15  H   UNL     1     -32.947  -1.349  -9.807  1.00  0.00     0.217 HD
ENDBRANCH   9  14
ENDBRANCH   5   6
ENDBRANCH   1   5
BRANCH   2  16
HETATM   16  C   UNL     1     -31.085  -4.292 -17.315  1.00  0.00     0.103 C 
BRANCH  16  17
HETATM   17  C   UNL     1     -30.805  -5.733 -16.891  1.00  0.00     0.010 C 
BRANCH  17  18
HETATM   18  C   UNL     1     -29.340  -6.123 -17.090  1.00  0.00     0.004 C 
BRANCH  18  19
HETATM   19  C   UNL     1     -28.805  -5.536 -18.400  1.00  0.00     0.027 C 
BRANCH  19  20
HETATM   20  C   UNL     1     -27.650  -6.329 -18.939  1.00  0.00    -0.030 C 
HETATM   21  C   UNL     1     -27.004  -6.022 -20.076  1.00  0.00    -0.027 C 
BRANCH  21  22
HETATM   22  C   UNL     1     -25.863  -6.834 -20.639  1.00  0.00    -0.001 C 
HETATM   23  C   UNL     1     -24.756  -6.981 -19.595  1.00  0.00     0.013 C 
HETATM   24  C   UNL     1     -26.363  -8.204 -21.090  1.00  0.00     0.013 C 
ENDBRANCH  21  22
ENDBRANCH  19  20
ENDBRANCH  18  19
ENDBRANCH  17  18
ENDBRANCH  16  17
ENDBRANCH   2  16
TORSDOF 10
ENDMDL
MODEL 9
REMARK VINA RESULT:      -6.9      2.714      3.570
REMARK  10 active torsions:
REMARK  status: ('A' for Active; 'I' for Inactive)
REMARK    1  A    between atoms: O_2  and  C_3 
REMARK    2  A    between atoms: C_5  and  C_6 
REMARK    3  A    between atoms: C_6  and  N_7 
REMARK       I    between atoms: N_7  and  C_8 
REMARK    4  A    between atoms: C_8  and  C_10 
REMARK    5  A    between atoms: C_10  and  C_11 
REMARK    6  A    between atoms: C_11  and  C_12 
REMARK    7  A    between atoms: C_12  and  C_13 
REMARK    8  A    between atoms: C_13  and  C_14 
REMARK    9  A    between atoms: C_15  and  C_16 
REMARK   10  A    between atoms: C_21  and  O_22 
ROOT
HETATM    1  N   UNL     1     -20.627  -5.841  -6.578  1.00  0.00    -0.357 N 
HETATM    2  C   UNL     1     -20.846  -6.282  -5.294  1.00  0.00     0.217 C 
HETATM    3  O   UNL     1     -21.247  -5.552  -4.391  1.00  0.00    -0.274 OA
HETATM    4  H   UNL     1     -20.372  -6.503  -7.297  1.00  0.00     0.162 HD
ENDROOT
BRANCH   1   5
HETATM    5  C   UNL     1     -20.898  -4.476  -6.970  1.00  0.00     0.161 C 
BRANCH   5   6
HETATM    6  C   UNL     1     -21.127  -4.337  -8.455  1.00  0.00    -0.038 A 
HETATM    7  C   UNL     1     -22.386  -3.935  -8.941  1.00  0.00     0.048 A 
HETATM    8  C   UNL     1     -22.609  -3.757 -10.310  1.00  0.00     0.101 A 
HETATM    9  C   UNL     1     -21.556  -4.009 -11.200  1.00  0.00     0.099 A 
HETATM   10  C   UNL     1     -20.308  -4.428 -10.738  1.00  0.00     0.040 A 
HETATM   11  C   UNL     1     -20.097  -4.594  -9.368  1.00  0.00     0.012 A 
BRANCH   8  12
HETATM   12  O   UNL     1     -23.789  -3.343 -10.869  1.00  0.00    -0.353 OA
HETATM   13  C   UNL     1     -24.944  -3.363 -10.041  1.00  0.00     0.210 C 
ENDBRANCH   8  12
BRANCH   9  14
HETATM   14  O   UNL     1     -21.759  -3.836 -12.545  1.00  0.00    -0.358 OA
HETATM   15  H   UNL     1     -20.923  -3.983 -13.014  1.00  0.00     0.217 HD
ENDBRANCH   9  14
ENDBRANCH   5   6
ENDBRANCH   1   5
BRANCH   2  16
HETATM   16  C   UNL     1     -20.480  -7.741  -5.075  1.00  0.00     0.103 C 
BRANCH  16  17
HETATM   17  C   UNL     1     -21.655  -8.514  -4.481  1.00  0.00     0.010 C 
BRANCH  17  18
HETATM   18  C   UNL     1     -21.411  -8.918  -3.027  1.00  0.00     0.004 C 
BRANCH  18  19
HETATM   19  C   UNL     1     -22.075 -10.266  -2.730  1.00  0.00     0.027 C 
BRANCH  19  20
HETATM   20  C   UNL     1     -22.302 -11.066  -3.980  1.00  0.00    -0.030 C 
HETATM   21  C   UNL     1     -21.520 -12.091  -4.359  1.00  0.00    -0.027 C 
BRANCH  21  22
HETATM   22  C   UNL     1     -21.724 -12.878  -5.630  1.00  0.00    -0.001 C 
HETATM   23  C   UNL     1     -23.162 -13.390  -5.707  1.00  0.00     0.013 C 
HETATM   24  C   UNL     1     -21.395 -12.013  -6.844  1.00  0.00     0.013 C 
ENDBRANCH  21  22
ENDBRANCH  19  20
ENDBRANCH  18  19
ENDBRANCH  17  18
ENDBRANCH  16  17
ENDBRANCH   2  16
TORSDOF 10
ENDMDL
