MODEL 1
REMARK VINA RESULT:     -10.6      0.000      0.000
REMARK  11 active torsions:
REMARK  status: ('A' for Active; 'I' for Inactive)
REMARK    1  A    between atoms: C_2  and  C_4 
REMARK    2  A    between atoms: C_10  and  C_11 
REMARK    3  A    between atoms: C_11  and  C_12 
REMARK    4  A    between atoms: C_22  and  C_23 
REMARK    5  A    between atoms: C_23  and  O_24 
REMARK    6  A    between atoms: O_24  and  C_25 
REMARK    7  A    between atoms: C_25  and  C_27 
REMARK    8  A    between atoms: C_27  and  C_28 
REMARK    9  A    between atoms: C_31  and  O_32 
REMARK   10  A    between atoms: C_33  and  O_34 
REMARK   11  A    between atoms: C_38  and  O_39 
ROOT
HETATM    1  C   UNL     1     -15.013 -11.285  -5.264  1.00  0.00     0.116 C 
HETATM    2  C   UNL     1     -15.839 -11.794  -6.419  1.00  0.00     0.053 C 
HETATM    3  C   UNL     1     -17.003 -12.564  -5.856  1.00  0.00     0.020 C 
HETATM    4  C   UNL     1     -16.753 -13.920  -5.166  1.00  0.00     0.013 C 
HETATM    5  C   UNL     1     -17.851 -11.599  -4.922  1.00  0.00     0.083 C 
HETATM    6  O   UNL     1     -17.435 -11.687  -3.508  1.00  0.00    -0.320 OA
HETATM    7  C   UNL     1     -16.087 -11.074  -3.220  1.00  0.00     0.288 C 
HETATM    8  O   UNL     1     -15.877  -9.719  -3.605  1.00  0.00    -0.323 OA
HETATM    9  C   UNL     1     -15.952  -9.875  -4.999  1.00  0.00     0.173 C 
HETATM   10  C   UNL     1     -17.611 -10.085  -5.176  1.00  0.00     0.054 C 
HETATM   11  C   UNL     1     -18.547  -9.363  -4.063  1.00  0.00     0.017 C 
HETATM   12  C   UNL     1     -19.860  -9.161  -4.268  1.00  0.00     0.014 C 
HETATM   13  C   UNL     1     -20.815 -10.338  -4.021  1.00  0.00     0.053 C 
HETATM   14  C   UNL     1     -20.642 -11.274  -5.197  1.00  0.00     0.125 C 
HETATM   15  C   UNL     1     -21.652 -12.415  -5.262  1.00  0.00     0.165 C 
HETATM   16  O   UNL     1     -22.864 -12.285  -5.152  1.00  0.00    -0.294 OA
HETATM   17  C   UNL     1     -21.016 -13.700  -5.718  1.00  0.00     0.055 C 
HETATM   18  C   UNL     1     -21.242 -13.825  -7.220  1.00  0.00     0.018 C 
HETATM   19  C   UNL     1     -19.781 -13.513  -5.200  1.00  0.00     0.023 C 
HETATM   20  C   UNL     1     -19.326 -12.055  -5.343  1.00  0.00     0.064 C 
HETATM   21  O   UNL     1     -15.266 -11.895  -3.966  1.00  0.00    -0.314 OA
ENDROOT
BRANCH  12  22
HETATM   22  C   UNL     1     -20.377  -8.078  -5.156  1.00  0.00     0.183 C 
BRANCH  22  23
HETATM   23  O   UNL     1     -20.718  -6.952  -4.357  1.00  0.00    -0.321 OA
BRANCH  23  24
HETATM   24  C   UNL     1     -21.521  -6.027  -4.970  1.00  0.00     0.263 C 
HETATM   25  O   UNL     1     -22.718  -6.089  -5.116  1.00  0.00    -0.265 OA
BRANCH  24  26
HETATM   26  C   UNL     1     -20.665  -4.877  -5.453  1.00  0.00     0.149 C 
BRANCH  26  27
HETATM   27  C   UNL     1     -20.816  -4.628  -6.928  1.00  0.00    -0.046 A 
HETATM   28  C   UNL     1     -19.774  -4.979  -7.826  1.00  0.00     0.010 A 
HETATM   29  C   UNL     1     -19.934  -4.793  -9.199  1.00  0.00     0.040 A 
HETATM   30  C   UNL     1     -21.121  -4.271  -9.703  1.00  0.00     0.099 A 
HETATM   31  C   UNL     1     -22.152  -3.932  -8.827  1.00  0.00     0.101 A 
HETATM   32  C   UNL     1     -22.003  -4.116  -7.454  1.00  0.00     0.047 A 
BRANCH  30  33
HETATM   33  O   UNL     1     -21.286  -4.096 -11.049  1.00  0.00    -0.358 OA
HETATM   34  H   UNL     1     -22.007  -4.666 -11.356  1.00  0.00     0.217 HD
ENDBRANCH  30  33
BRANCH  31  35
HETATM   35  O   UNL     1     -23.330  -3.373  -9.227  1.00  0.00    -0.353 OA
HETATM   36  C   UNL     1     -24.272  -4.361  -9.619  1.00  0.00     0.210 C 
ENDBRANCH  31  35
ENDBRANCH  26  27
ENDBRANCH  24  26
ENDBRANCH  23  24
ENDBRANCH  22  23
ENDBRANCH  12  22
BRANCH  14  37
HETATM   37  O   UNL     1     -20.876 -10.573  -6.440  1.00  0.00    -0.382 OA
HETATM   38  H   UNL     1     -21.065  -9.629  -6.180  1.00  0.00     0.211 HD
ENDBRANCH  14  37
BRANCH   1  39
HETATM   39  C   UNL     1     -13.670 -12.171  -5.298  1.00  0.00    -0.056 C 
HETATM   40  C   UNL     1     -13.204 -12.774  -6.438  1.00  0.00     0.017 C 
HETATM   41  C   UNL     1     -13.199 -12.956  -4.071  1.00  0.00     0.046 C 
ENDBRANCH   1  39
BRANCH   7  42
HETATM   42  C   UNL     1     -15.827 -11.134  -1.712  1.00  0.00     0.140 C 
BRANCH  42  43
HETATM   43  C   UNL     1     -15.712 -12.313  -0.718  1.00  0.00    -0.051 C 
HETATM   44  C   UNL     1     -14.873 -13.445  -0.774  1.00  0.00     0.007 C 
HETATM   45  C   UNL     1     -14.462 -14.066   0.428  1.00  0.00     0.001 C 
HETATM   46  C   UNL     1     -14.940 -13.618   1.663  1.00  0.00     0.000 C 
HETATM   47  C   UNL     1     -15.896 -12.581   1.712  1.00  0.00     0.001 C 
HETATM   48  C   UNL     1     -16.273 -11.983   0.517  1.00  0.00     0.007 C 
ENDBRANCH  42  43
ENDBRANCH   7  42
TORSDOF 11
ENDMDL
MODEL 2
REMARK VINA RESULT:     -10.3      2.464      4.973
REMARK  11 active torsions:
REMARK  status: ('A' for Active; 'I' for Inactive)
REMARK    1  A    between atoms: C_2  and  C_4 
REMARK    2  A    between atoms: C_10  and  C_11 
REMARK    3  A    between atoms: C_11  and  C_12 
REMARK    4  A    between atoms: C_22  and  C_23 
REMARK    5  A    between atoms: C_23  and  O_24 
REMARK    6  A    between atoms: O_24  and  C_25 
REMARK    7  A    between atoms: C_25  and  C_27 
REMARK    8  A    between atoms: C_27  and  C_28 
REMARK    9  A    between atoms: C_31  and  O_32 
REMARK   10  A    between atoms: C_33  and  O_34 
REMARK   11  A    between atoms: C_38  and  O_39 
ROOT
HETATM    1  C   UNL     1     -21.684 -13.062  -6.398  1.00  0.00     0.116 C 
HETATM    2  C   UNL     1     -22.803 -12.638  -5.479  1.00  0.00     0.053 C 
HETATM    3  C   UNL     1     -22.225 -12.437  -4.105  1.00  0.00     0.020 C 
HETATM    4  C   UNL     1     -21.744 -13.659  -3.297  1.00  0.00     0.013 C 
HETATM    5  C   UNL     1     -21.093 -11.326  -4.184  1.00  0.00     0.083 C 
HETATM    6  O   UNL     1     -19.752 -11.913  -4.384  1.00  0.00    -0.320 OA
HETATM    7  C   UNL     1     -19.529 -12.492  -5.760  1.00  0.00     0.288 C 
HETATM    8  O   UNL     1     -19.758 -11.645  -6.882  1.00  0.00    -0.323 OA
HETATM    9  C   UNL     1     -21.144 -11.472  -6.745  1.00  0.00     0.173 C 
HETATM   10  C   UNL     1     -21.173 -10.414  -5.438  1.00  0.00     0.054 C 
HETATM   11  C   UNL     1     -19.886  -9.438  -5.278  1.00  0.00     0.017 C 
HETATM   12  C   UNL     1     -19.926  -8.336  -4.509  1.00  0.00     0.014 C 
HETATM   13  C   UNL     1     -19.734  -8.510  -2.995  1.00  0.00     0.053 C 
HETATM   14  C   UNL     1     -21.032  -9.084  -2.470  1.00  0.00     0.125 C 
HETATM   15  C   UNL     1     -21.137  -9.143  -0.949  1.00  0.00     0.165 C 
HETATM   16  O   UNL     1     -20.886  -8.215  -0.192  1.00  0.00    -0.294 OA
HETATM   17  C   UNL     1     -21.817 -10.402  -0.484  1.00  0.00     0.055 C 
HETATM   18  C   UNL     1     -23.292 -10.082  -0.265  1.00  0.00     0.018 C 
HETATM   19  C   UNL     1     -21.411 -11.232  -1.471  1.00  0.00     0.023 C 
HETATM   20  C   UNL     1     -21.412 -10.527  -2.834  1.00  0.00     0.064 C 
HETATM   21  O   UNL     1     -20.456 -13.515  -5.762  1.00  0.00    -0.314 OA
ENDROOT
BRANCH  12  22
HETATM   22  C   UNL     1     -20.609  -7.080  -4.938  1.00  0.00     0.183 C 
BRANCH  22  23
HETATM   23  O   UNL     1     -20.433  -6.917  -6.340  1.00  0.00    -0.321 OA
BRANCH  23  24
HETATM   24  C   UNL     1     -20.091  -5.652  -6.738  1.00  0.00     0.263 C 
HETATM   25  O   UNL     1     -18.977  -5.191  -6.812  1.00  0.00    -0.265 OA
BRANCH  24  26
HETATM   26  C   UNL     1     -21.350  -4.890  -7.088  1.00  0.00     0.149 C 
BRANCH  26  27
HETATM   27  C   UNL     1     -21.427  -4.549  -8.551  1.00  0.00    -0.046 A 
HETATM   28  C   UNL     1     -20.281  -4.681  -9.380  1.00  0.00     0.010 A 
HETATM   29  C   UNL     1     -20.366  -4.412 -10.746  1.00  0.00     0.040 A 
HETATM   30  C   UNL     1     -21.576  -4.020 -11.311  1.00  0.00     0.099 A 
HETATM   31  C   UNL     1     -22.707  -3.896 -10.503  1.00  0.00     0.101 A 
HETATM   32  C   UNL     1     -22.633  -4.166  -9.139  1.00  0.00     0.047 A 
BRANCH  30  33
HETATM   33  O   UNL     1     -21.666  -3.764 -12.651  1.00  0.00    -0.358 OA
HETATM   34  H   UNL     1     -20.924  -4.192 -13.105  1.00  0.00     0.217 HD
ENDBRANCH  30  33
BRANCH  31  35
HETATM   35  O   UNL     1     -23.920  -3.476 -10.962  1.00  0.00    -0.353 OA
HETATM   36  C   UNL     1     -24.865  -3.358  -9.909  1.00  0.00     0.210 C 
ENDBRANCH  31  35
ENDBRANCH  26  27
ENDBRANCH  24  26
ENDBRANCH  23  24
ENDBRANCH  22  23
ENDBRANCH  12  22
BRANCH  14  37
HETATM   37  O   UNL     1     -22.143  -8.233  -2.831  1.00  0.00    -0.382 OA
HETATM   38  H   UNL     1     -21.963  -7.359  -2.386  1.00  0.00     0.211 HD
ENDBRANCH  14  37
BRANCH   1  39
HETATM   39  C   UNL     1     -21.971 -14.616  -6.706  1.00  0.00    -0.056 C 
HETATM   40  C   UNL     1     -23.172 -15.220  -6.432  1.00  0.00     0.017 C 
HETATM   41  C   UNL     1     -20.849 -15.658  -6.668  1.00  0.00     0.046 C 
ENDBRANCH   1  39
BRANCH   7  42
HETATM   42  C   UNL     1     -18.077 -12.964  -5.870  1.00  0.00     0.140 C 
BRANCH  42  43
HETATM   43  C   UNL     1     -16.729 -12.282  -5.538  1.00  0.00    -0.051 C 
HETATM   44  C   UNL     1     -16.139 -12.043  -4.279  1.00  0.00     0.007 C 
HETATM   45  C   UNL     1     -14.731 -11.985  -4.171  1.00  0.00     0.001 C 
HETATM   46  C   UNL     1     -13.922 -12.083  -5.308  1.00  0.00     0.000 C 
HETATM   47  C   UNL     1     -14.516 -12.171  -6.586  1.00  0.00     0.001 C 
HETATM   48  C   UNL     1     -15.900 -12.238  -6.660  1.00  0.00     0.007 C 
ENDBRANCH  42  43
ENDBRANCH   7  42
TORSDOF 11
ENDMDL
MODEL 3
REMARK VINA RESULT:     -10.2      2.177      4.087
REMARK  11 active torsions:
REMARK  status: ('A' for Active; 'I' for Inactive)
REMARK    1  A    between atoms: C_2  and  C_4 
REMARK    2  A    between atoms: C_10  and  C_11 
REMARK    3  A    between atoms: C_11  and  C_12 
REMARK    4  A    between atoms: C_22  and  C_23 
REMARK    5  A    between atoms: C_23  and  O_24 
REMARK    6  A    between atoms: O_24  and  C_25 
REMARK    7  A    between atoms: C_25  and  C_27 
REMARK    8  A    between atoms: C_27  and  C_28 
REMARK    9  A    between atoms: C_31  and  O_32 
REMARK   10  A    between atoms: C_33  and  O_34 
REMARK   11  A    between atoms: C_38  and  O_39 
ROOT
HETATM    1  C   UNL     1     -19.279 -12.704  -5.813  1.00  0.00     0.116 C 
HETATM    2  C   UNL     1     -20.485 -12.956  -4.943  1.00  0.00     0.053 C 
HETATM    3  C   UNL     1     -20.156 -12.500  -3.547  1.00  0.00     0.020 C 
HETATM    4  C   UNL     1     -19.129 -13.293  -2.713  1.00  0.00     0.013 C 
HETATM    5  C   UNL     1     -19.786 -10.957  -3.587  1.00  0.00     0.083 C 
HETATM    6  O   UNL     1     -18.333 -10.737  -3.729  1.00  0.00    -0.320 OA
HETATM    7  C   UNL     1     -17.784 -11.086  -5.091  1.00  0.00     0.288 C 
HETATM    8  O   UNL     1     -18.386 -10.472  -6.227  1.00  0.00    -0.323 OA
HETATM    9  C   UNL     1     -19.656 -11.065  -6.147  1.00  0.00     0.173 C 
HETATM   10  C   UNL     1     -20.293 -10.207  -4.849  1.00  0.00     0.054 C 
HETATM   11  C   UNL     1     -19.729  -8.698  -4.643  1.00  0.00     0.017 C 
HETATM   12  C   UNL     1     -20.379  -7.800  -3.883  1.00  0.00     0.014 C 
HETATM   13  C   UNL     1     -20.181  -7.870  -2.361  1.00  0.00     0.053 C 
HETATM   14  C   UNL     1     -20.993  -9.055  -1.886  1.00  0.00     0.125 C 
HETATM   15  C   UNL     1     -21.107  -9.185  -0.370  1.00  0.00     0.165 C 
HETATM   16  O   UNL     1     -21.418  -8.279   0.390  1.00  0.00    -0.294 OA
HETATM   17  C   UNL     1     -21.030 -10.620   0.074  1.00  0.00     0.055 C 
HETATM   18  C   UNL     1     -22.456 -11.138   0.231  1.00  0.00     0.018 C 
HETATM   19  C   UNL     1     -20.208 -11.091  -0.890  1.00  0.00     0.023 C 
HETATM   20  C   UNL     1     -20.533 -10.473  -2.257  1.00  0.00     0.064 C 
HETATM   21  O   UNL     1     -18.023 -12.445  -5.124  1.00  0.00    -0.314 OA
ENDROOT
BRANCH  12  22
HETATM   22  C   UNL     1     -21.608  -7.092  -4.347  1.00  0.00     0.183 C 
BRANCH  22  23
HETATM   23  O   UNL     1     -21.234  -5.843  -4.913  1.00  0.00    -0.321 OA
BRANCH  23  24
HETATM   24  C   UNL     1     -21.186  -5.817  -6.282  1.00  0.00     0.263 C 
HETATM   25  O   UNL     1     -21.186  -6.768  -7.026  1.00  0.00    -0.265 OA
BRANCH  24  26
HETATM   26  C   UNL     1     -21.136  -4.378  -6.744  1.00  0.00     0.149 C 
BRANCH  26  27
HETATM   27  C   UNL     1     -21.256  -4.250  -8.238  1.00  0.00    -0.046 A 
HETATM   28  C   UNL     1     -20.119  -4.436  -9.068  1.00  0.00     0.010 A 
HETATM   29  C   UNL     1     -20.241  -4.366 -10.456  1.00  0.00     0.040 A 
HETATM   30  C   UNL     1     -21.480  -4.123 -11.041  1.00  0.00     0.099 A 
HETATM   31  C   UNL     1     -22.602  -3.948 -10.231  1.00  0.00     0.101 A 
HETATM   32  C   UNL     1     -22.491  -4.019  -8.844  1.00  0.00     0.047 A 
BRANCH  30  33
HETATM   33  O   UNL     1     -21.606  -4.063 -12.401  1.00  0.00    -0.358 OA
HETATM   34  H   UNL     1     -21.948  -4.910 -12.724  1.00  0.00     0.217 HD
ENDBRANCH  30  33
BRANCH  31  35
HETATM   35  O   UNL     1     -23.845  -3.662 -10.714  1.00  0.00    -0.353 OA
HETATM   36  C   UNL     1     -24.739  -3.294  -9.675  1.00  0.00     0.210 C 
ENDBRANCH  31  35
ENDBRANCH  26  27
ENDBRANCH  24  26
ENDBRANCH  23  24
ENDBRANCH  22  23
ENDBRANCH  12  22
BRANCH  14  37
HETATM   37  O   UNL     1     -22.372  -8.919  -2.297  1.00  0.00    -0.382 OA
HETATM   38  H   UNL     1     -22.495  -7.950  -2.495  1.00  0.00     0.211 HD
ENDBRANCH  14  37
BRANCH   1  39
HETATM   39  C   UNL     1     -18.683 -14.167  -6.122  1.00  0.00    -0.056 C 
HETATM   40  C   UNL     1     -19.470 -15.287  -6.214  1.00  0.00     0.017 C 
HETATM   41  C   UNL     1     -17.271 -14.563  -5.684  1.00  0.00     0.046 C 
ENDBRANCH   1  39
BRANCH   7  42
HETATM   42  C   UNL     1     -16.301 -10.712  -5.139  1.00  0.00     0.140 C 
BRANCH  42  43
HETATM   43  C   UNL     1     -15.008 -11.530  -4.910  1.00  0.00    -0.051 C 
HETATM   44  C   UNL     1     -14.522 -12.112  -3.721  1.00  0.00     0.007 C 
HETATM   45  C   UNL     1     -13.717 -13.272  -3.793  1.00  0.00     0.001 C 
HETATM   46  C   UNL     1     -13.334 -13.801  -5.029  1.00  0.00     0.000 C 
HETATM   47  C   UNL     1     -13.696 -13.134  -6.220  1.00  0.00     0.001 C 
HETATM   48  C   UNL     1     -14.496 -12.005  -6.120  1.00  0.00     0.007 C 
ENDBRANCH  42  43
ENDBRANCH   7  42
TORSDOF 11
ENDMDL
MODEL 4
REMARK VINA RESULT:     -10.0      2.481      8.943
REMARK  11 active torsions:
REMARK  status: ('A' for Active; 'I' for Inactive)
REMARK    1  A    between atoms: C_2  and  C_4 
REMARK    2  A    between atoms: C_10  and  C_11 
REMARK    3  A    between atoms: C_11  and  C_12 
REMARK    4  A    between atoms: C_22  and  C_23 
REMARK    5  A    between atoms: C_23  and  O_24 
REMARK    6  A    between atoms: O_24  and  C_25 
REMARK    7  A    between atoms: C_25  and  C_27 
REMARK    8  A    between atoms: C_27  and  C_28 
REMARK    9  A    between atoms: C_31  and  O_32 
REMARK   10  A    between atoms: C_33  and  O_34 
REMARK   11  A    between atoms: C_38  and  O_39 
ROOT
HETATM    1  C   UNL     1     -21.247  -9.742  -1.580  1.00  0.00     0.116 C 
HETATM    2  C   UNL     1     -21.290 -11.230  -1.817  1.00  0.00     0.053 C 
HETATM    3  C   UNL     1     -21.646 -11.461  -3.261  1.00  0.00     0.020 C 
HETATM    4  C   UNL     1     -23.070 -11.131  -3.754  1.00  0.00     0.013 C 
HETATM    5  C   UNL     1     -20.552 -10.763  -4.176  1.00  0.00     0.083 C 
HETATM    6  O   UNL     1     -20.943  -9.393  -4.562  1.00  0.00    -0.320 OA
HETATM    7  C   UNL     1     -20.894  -8.393  -3.432  1.00  0.00     0.288 C 
HETATM    8  O   UNL     1     -19.671  -8.263  -2.713  1.00  0.00    -0.323 OA
HETATM    9  C   UNL     1     -19.633  -9.535  -2.119  1.00  0.00     0.173 C 
HETATM   10  C   UNL     1     -19.209 -10.463  -3.456  1.00  0.00     0.054 C 
HETATM   11  C   UNL     1     -18.328  -9.716  -4.596  1.00  0.00     0.017 C 
HETATM   12  C   UNL     1     -17.644 -10.406  -5.526  1.00  0.00     0.014 C 
HETATM   13  C   UNL     1     -18.417 -10.929  -6.745  1.00  0.00     0.053 C 
HETATM   14  C   UNL     1     -19.214 -12.120  -6.259  1.00  0.00     0.125 C 
HETATM   15  C   UNL     1     -19.898 -12.925  -7.359  1.00  0.00     0.165 C 
HETATM   16  O   UNL     1     -19.354 -13.320  -8.381  1.00  0.00    -0.294 OA
HETATM   17  C   UNL     1     -21.266 -13.392  -6.941  1.00  0.00     0.055 C 
HETATM   18  C   UNL     1     -21.131 -14.815  -6.410  1.00  0.00     0.018 C 
HETATM   19  C   UNL     1     -21.597 -12.361  -6.131  1.00  0.00     0.023 C 
HETATM   20  C   UNL     1     -20.395 -11.888  -5.303  1.00  0.00     0.064 C 
HETATM   21  O   UNL     1     -21.866  -8.902  -2.595  1.00  0.00    -0.314 OA
ENDROOT
BRANCH  12  22
HETATM   22  C   UNL     1     -16.354 -11.096  -5.227  1.00  0.00     0.183 C 
BRANCH  22  23
HETATM   23  O   UNL     1     -15.709 -10.421  -4.155  1.00  0.00    -0.321 OA
BRANCH  23  24
HETATM   24  C   UNL     1     -15.300 -11.226  -3.125  1.00  0.00     0.263 C 
HETATM   25  O   UNL     1     -14.566 -12.183  -3.199  1.00  0.00    -0.265 OA
BRANCH  24  26
HETATM   26  C   UNL     1     -15.916 -10.727  -1.836  1.00  0.00     0.149 C 
BRANCH  26  27
HETATM   27  C   UNL     1     -16.331 -11.850  -0.926  1.00  0.00    -0.046 A 
HETATM   28  C   UNL     1     -15.706 -12.019   0.338  1.00  0.00     0.010 A 
HETATM   29  C   UNL     1     -16.125 -13.030   1.202  1.00  0.00     0.040 A 
HETATM   30  C   UNL     1     -17.167 -13.879   0.838  1.00  0.00     0.099 A 
HETATM   31  C   UNL     1     -17.791 -13.713  -0.399  1.00  0.00     0.101 A 
HETATM   32  C   UNL     1     -17.381 -12.703  -1.267  1.00  0.00     0.047 A 
BRANCH  30  33
HETATM   33  O   UNL     1     -17.587 -14.865   1.685  1.00  0.00    -0.358 OA
HETATM   34  H   UNL     1     -17.974 -15.586   1.165  1.00  0.00     0.217 HD
ENDBRANCH  30  33
BRANCH  31  35
HETATM   35  O   UNL     1     -18.787 -14.523  -0.857  1.00  0.00    -0.353 OA
HETATM   36  C   UNL     1     -19.083 -14.269  -2.222  1.00  0.00     0.210 C 
ENDBRANCH  31  35
ENDBRANCH  26  27
ENDBRANCH  24  26
ENDBRANCH  23  24
ENDBRANCH  22  23
ENDBRANCH  12  22
BRANCH  14  37
HETATM   37  O   UNL     1     -18.340 -13.097  -5.649  1.00  0.00    -0.382 OA
HETATM   38  H   UNL     1     -18.091 -13.724  -6.382  1.00  0.00     0.211 HD
ENDBRANCH  14  37
BRANCH   1  39
HETATM   39  C   UNL     1     -22.548  -9.431  -0.684  1.00  0.00    -0.056 C 
HETATM   40  C   UNL     1     -22.649  -8.326   0.122  1.00  0.00     0.017 C 
HETATM   41  C   UNL     1     -23.422 -10.558  -0.127  1.00  0.00     0.046 C 
ENDBRANCH   1  39
BRANCH   7  42
HETATM   42  C   UNL     1     -21.213  -7.002  -3.987  1.00  0.00     0.140 C 
BRANCH  42  43
HETATM   43  C   UNL     1     -21.296  -6.446  -5.427  1.00  0.00    -0.051 C 
HETATM   44  C   UNL     1     -22.289  -5.632  -6.011  1.00  0.00     0.007 C 
HETATM   45  C   UNL     1     -21.939  -4.754  -7.062  1.00  0.00     0.001 C 
HETATM   46  C   UNL     1     -20.641  -4.740  -7.580  1.00  0.00     0.000 C 
HETATM   47  C   UNL     1     -19.684  -5.660  -7.098  1.00  0.00     0.001 C 
HETATM   48  C   UNL     1     -20.052  -6.502  -6.058  1.00  0.00     0.007 C 
ENDBRANCH  42  43
ENDBRANCH   7  42
TORSDOF 11
ENDMDL
MODEL 5
REMARK VINA RESULT:      -9.9      2.498      9.221
REMARK  11 active torsions:
REMARK  status: ('A' for Active; 'I' for Inactive)
REMARK    1  A    between atoms: C_2  and  C_4 
REMARK    2  A    between atoms: C_10  and  C_11 
REMARK    3  A    between atoms: C_11  and  C_12 
REMARK    4  A    between atoms: C_22  and  C_23 
REMARK    5  A    between atoms: C_23  and  O_24 
REMARK    6  A    between atoms: O_24  and  C_25 
REMARK    7  A    between atoms: C_25  and  C_27 
REMARK    8  A    between atoms: C_27  and  C_28 
REMARK    9  A    between atoms: C_31  and  O_32 
REMARK   10  A    between atoms: C_33  and  O_34 
REMARK   11  A    between atoms: C_38  and  O_39 
ROOT
HETATM    1  C   UNL     1     -21.389  -9.667  -1.390  1.00  0.00     0.116 C 
HETATM    2  C   UNL     1     -21.330 -11.140  -1.708  1.00  0.00     0.053 C 
HETATM    3  C   UNL     1     -21.550 -11.306  -3.187  1.00  0.00     0.020 C 
HETATM    4  C   UNL     1     -22.944 -11.021  -3.783  1.00  0.00     0.013 C 
HETATM    5  C   UNL     1     -20.424 -10.504  -3.966  1.00  0.00     0.083 C 
HETATM    6  O   UNL     1     -20.856  -9.135  -4.313  1.00  0.00    -0.320 OA
HETATM    7  C   UNL     1     -20.957  -8.200  -3.133  1.00  0.00     0.288 C 
HETATM    8  O   UNL     1     -19.808  -8.049  -2.304  1.00  0.00    -0.323 OA
HETATM    9  C   UNL     1     -19.749  -9.349  -1.776  1.00  0.00     0.173 C 
HETATM   10  C   UNL     1     -19.164 -10.177  -3.117  1.00  0.00     0.054 C 
HETATM   11  C   UNL     1     -18.233  -9.323  -4.137  1.00  0.00     0.017 C 
HETATM   12  C   UNL     1     -17.437  -9.924  -5.038  1.00  0.00     0.014 C 
HETATM   13  C   UNL     1     -18.074 -10.415  -6.345  1.00  0.00     0.053 C 
HETATM   14  C   UNL     1     -18.843 -11.671  -5.992  1.00  0.00     0.125 C 
HETATM   15  C   UNL     1     -19.387 -12.446  -7.188  1.00  0.00     0.165 C 
HETATM   16  O   UNL     1     -18.738 -12.755  -8.178  1.00  0.00    -0.294 OA
HETATM   17  C   UNL     1     -20.757 -13.004  -6.916  1.00  0.00     0.055 C 
HETATM   18  C   UNL     1     -20.589 -14.446  -6.449  1.00  0.00     0.018 C 
HETATM   19  C   UNL     1     -21.211 -12.039  -6.085  1.00  0.00     0.023 C 
HETATM   20  C   UNL     1     -20.110 -11.553  -5.132  1.00  0.00     0.064 C 
HETATM   21  O   UNL     1     -21.966  -8.804  -2.411  1.00  0.00    -0.314 OA
ENDROOT
BRANCH  12  22
HETATM   22  C   UNL     1     -16.141 -10.564  -4.664  1.00  0.00     0.183 C 
BRANCH  22  23
HETATM   23  O   UNL     1     -15.491 -11.011  -5.848  1.00  0.00    -0.321 OA
BRANCH  23  24
HETATM   24  C   UNL     1     -14.864 -12.224  -5.741  1.00  0.00     0.263 C 
HETATM   25  O   UNL     1     -15.185 -13.257  -6.279  1.00  0.00    -0.265 OA
BRANCH  24  26
HETATM   26  C   UNL     1     -13.667 -12.080  -4.826  1.00  0.00     0.149 C 
BRANCH  26  27
HETATM   27  C   UNL     1     -13.767 -12.958  -3.610  1.00  0.00    -0.046 A 
HETATM   28  C   UNL     1     -12.834 -14.009  -3.404  1.00  0.00     0.010 A 
HETATM   29  C   UNL     1     -12.896 -14.792  -2.251  1.00  0.00     0.040 A 
HETATM   30  C   UNL     1     -13.868 -14.543  -1.286  1.00  0.00     0.099 A 
HETATM   31  C   UNL     1     -14.782 -13.507  -1.478  1.00  0.00     0.101 A 
HETATM   32  C   UNL     1     -14.725 -12.718  -2.624  1.00  0.00     0.047 A 
BRANCH  30  33
HETATM   33  O   UNL     1     -13.927 -15.302  -0.150  1.00  0.00    -0.358 OA
HETATM   34  H   UNL     1     -14.054 -14.718   0.613  1.00  0.00     0.217 HD
ENDBRANCH  30  33
BRANCH  31  35
HETATM   35  O   UNL     1     -15.793 -13.222  -0.609  1.00  0.00    -0.353 OA
HETATM   36  C   UNL     1     -16.366 -11.949  -0.871  1.00  0.00     0.210 C 
ENDBRANCH  31  35
ENDBRANCH  26  27
ENDBRANCH  24  26
ENDBRANCH  23  24
ENDBRANCH  22  23
ENDBRANCH  12  22
BRANCH  14  37
HETATM   37  O   UNL     1     -17.971 -12.635  -5.360  1.00  0.00    -0.382 OA
HETATM   38  H   UNL     1     -18.562 -13.392  -5.093  1.00  0.00     0.211 HD
ENDBRANCH  14  37
BRANCH   1  39
HETATM   39  C   UNL     1     -22.775  -9.473  -0.595  1.00  0.00    -0.056 C 
HETATM   40  C   UNL     1     -23.003  -8.425   0.259  1.00  0.00     0.017 C 
HETATM   41  C   UNL     1     -23.633 -10.672  -0.181  1.00  0.00     0.046 C 
ENDBRANCH   1  39
BRANCH   7  42
HETATM   42  C   UNL     1     -21.304  -6.798  -3.639  1.00  0.00     0.140 C 
BRANCH  42  43
HETATM   43  C   UNL     1     -21.387  -6.191  -5.060  1.00  0.00    -0.051 C 
HETATM   44  C   UNL     1     -22.527  -5.865  -5.823  1.00  0.00     0.007 C 
HETATM   45  C   UNL     1     -22.454  -4.817  -6.769  1.00  0.00     0.001 C 
HETATM   46  C   UNL     1     -21.246  -4.156  -7.012  1.00  0.00     0.000 C 
HETATM   47  C   UNL     1     -20.070  -4.581  -6.357  1.00  0.00     0.001 C 
HETATM   48  C   UNL     1     -20.174  -5.604  -5.425  1.00  0.00     0.007 C 
ENDBRANCH  42  43
ENDBRANCH   7  42
TORSDOF 11
ENDMDL
MODEL 6
REMARK VINA RESULT:      -9.8      3.228      8.608
REMARK  11 active torsions:
REMARK  status: ('A' for Active; 'I' for Inactive)
REMARK    1  A    between atoms: C_2  and  C_4 
REMARK    2  A    between atoms: C_10  and  C_11 
REMARK    3  A    between atoms: C_11  and  C_12 
REMARK    4  A    between atoms: C_22  and  C_23 
REMARK    5  A    between atoms: C_23  and  O_24 
REMARK    6  A    between atoms: O_24  and  C_25 
REMARK    7  A    between atoms: C_25  and  C_27 
REMARK    8  A    between atoms: C_27  and  C_28 
REMARK    9  A    between atoms: C_31  and  O_32 
REMARK   10  A    between atoms: C_33  and  O_34 
REMARK   11  A    between atoms: C_38  and  O_39 
ROOT
HETATM    1  C   UNL     1     -21.189  -9.152  -0.600  1.00  0.00     0.116 C 
HETATM    2  C   UNL     1     -21.580 -10.234   0.376  1.00  0.00     0.053 C 
HETATM    3  C   UNL     1     -22.435 -11.233  -0.355  1.00  0.00     0.020 C 
HETATM    4  C   UNL     1     -23.855 -10.834  -0.803  1.00  0.00     0.013 C 
HETATM    5  C   UNL     1     -21.602 -11.827  -1.569  1.00  0.00     0.083 C 
HETATM    6  O   UNL     1     -21.842 -11.086  -2.823  1.00  0.00    -0.320 OA
HETATM    7  C   UNL     1     -21.236  -9.705  -2.851  1.00  0.00     0.288 C 
HETATM    8  O   UNL     1     -19.841  -9.585  -2.588  1.00  0.00    -0.323 OA
HETATM    9  C   UNL     1     -19.839  -9.992  -1.244  1.00  0.00     0.173 C 
HETATM   10  C   UNL     1     -20.064 -11.646  -1.444  1.00  0.00     0.054 C 
HETATM   11  C   UNL     1     -19.495 -12.284  -2.824  1.00  0.00     0.017 C 
HETATM   12  C   UNL     1     -19.300 -13.607  -2.962  1.00  0.00     0.014 C 
HETATM   13  C   UNL     1     -20.518 -14.482  -3.291  1.00  0.00     0.053 C 
HETATM   14  C   UNL     1     -21.310 -14.601  -2.006  1.00  0.00     0.125 C 
HETATM   15  C   UNL     1     -22.458 -15.605  -2.052  1.00  0.00     0.165 C 
HETATM   16  O   UNL     1     -22.368 -16.754  -2.462  1.00  0.00    -0.294 OA
HETATM   17  C   UNL     1     -23.667 -15.104  -1.312  1.00  0.00     0.055 C 
HETATM   18  C   UNL     1     -23.625 -15.683   0.098  1.00  0.00     0.018 C 
HETATM   19  C   UNL     1     -23.514 -13.780  -1.538  1.00  0.00     0.023 C 
HETATM   20  C   UNL     1     -22.039 -13.364  -1.462  1.00  0.00     0.064 C 
HETATM   21  O   UNL     1     -21.948  -9.090  -1.841  1.00  0.00    -0.314 OA
ENDROOT
BRANCH  12  22
HETATM   22  C   UNL     1     -18.134 -14.315  -2.356  1.00  0.00     0.183 C 
BRANCH  22  23
HETATM   23  O   UNL     1     -17.685 -13.578  -1.226  1.00  0.00    -0.321 OA
BRANCH  23  24
HETATM   24  C   UNL     1     -16.341 -13.665  -0.973  1.00  0.00     0.263 C 
HETATM   25  O   UNL     1     -15.697 -14.675  -0.815  1.00  0.00    -0.265 OA
BRANCH  24  26
HETATM   26  C   UNL     1     -15.759 -12.270  -0.921  1.00  0.00     0.149 C 
BRANCH  26  27
HETATM   27  C   UNL     1     -15.799 -11.581  -2.257  1.00  0.00    -0.046 A 
HETATM   28  C   UNL     1     -16.360 -10.282  -2.378  1.00  0.00     0.010 A 
HETATM   29  C   UNL     1     -16.353  -9.623  -3.608  1.00  0.00     0.040 A 
HETATM   30  C   UNL     1     -15.787 -10.230  -4.726  1.00  0.00     0.099 A 
HETATM   31  C   UNL     1     -15.227 -11.502  -4.611  1.00  0.00     0.101 A 
HETATM   32  C   UNL     1     -15.226 -12.166  -3.387  1.00  0.00     0.047 A 
BRANCH  30  33
HETATM   33  O   UNL     1     -15.770  -9.584  -5.931  1.00  0.00    -0.358 OA
HETATM   34  H   UNL     1     -15.699  -8.630  -5.777  1.00  0.00     0.217 HD
ENDBRANCH  30  33
BRANCH  31  35
HETATM   35  O   UNL     1     -14.692 -12.189  -5.661  1.00  0.00    -0.353 OA
HETATM   36  C   UNL     1     -15.585 -13.178  -6.149  1.00  0.00     0.210 C 
ENDBRANCH  31  35
ENDBRANCH  26  27
ENDBRANCH  24  26
ENDBRANCH  23  24
ENDBRANCH  22  23
ENDBRANCH  12  22
BRANCH  14  37
HETATM   37  O   UNL     1     -20.476 -15.122  -0.946  1.00  0.00    -0.382 OA
HETATM   38  H   UNL     1     -19.909 -15.821  -1.374  1.00  0.00     0.211 HD
ENDBRANCH  14  37
BRANCH   1  39
HETATM   39  C   UNL     1     -22.034  -7.861  -0.144  1.00  0.00    -0.056 C 
HETATM   40  C   UNL     1     -22.998  -7.908   0.830  1.00  0.00     0.017 C 
HETATM   41  C   UNL     1     -22.344  -6.723  -1.121  1.00  0.00     0.046 C 
ENDBRANCH   1  39
BRANCH   7  42
HETATM   42  C   UNL     1     -21.462  -9.092  -4.236  1.00  0.00     0.140 C 
BRANCH  42  43
HETATM   43  C   UNL     1     -21.094  -7.718  -4.843  1.00  0.00    -0.051 C 
HETATM   44  C   UNL     1     -19.969  -7.358  -5.613  1.00  0.00     0.007 C 
HETATM   45  C   UNL     1     -20.077  -6.308  -6.554  1.00  0.00     0.001 C 
HETATM   46  C   UNL     1     -21.261  -5.573  -6.672  1.00  0.00     0.000 C 
HETATM   47  C   UNL     1     -22.339  -5.834  -5.798  1.00  0.00     0.001 C 
HETATM   48  C   UNL     1     -22.209  -6.878  -4.893  1.00  0.00     0.007 C 
ENDBRANCH  42  43
ENDBRANCH   7  42
TORSDOF 11
ENDMDL
MODEL 7
REMARK VINA RESULT:      -9.8      2.316      3.708
REMARK  11 active torsions:
REMARK  status: ('A' for Active; 'I' for Inactive)
REMARK    1  A    between atoms: C_2  and  C_4 
REMARK    2  A    between atoms: C_10  and  C_11 
REMARK    3  A    between atoms: C_11  and  C_12 
REMARK    4  A    between atoms: C_22  and  C_23 
REMARK    5  A    between atoms: C_23  and  O_24 
REMARK    6  A    between atoms: O_24  and  C_25 
REMARK    7  A    between atoms: C_25  and  C_27 
REMARK    8  A    between atoms: C_27  and  C_28 
REMARK    9  A    between atoms: C_31  and  O_32 
REMARK   10  A    between atoms: C_33  and  O_34 
REMARK   11  A    between atoms: C_38  and  O_39 
ROOT
HETATM    1  C   UNL     1     -16.793 -12.127  -1.533  1.00  0.00     0.116 C 
HETATM    2  C   UNL     1     -16.599 -12.634  -2.940  1.00  0.00     0.053 C 
HETATM    3  C   UNL     1     -17.920 -13.162  -3.431  1.00  0.00     0.020 C 
HETATM    4  C   UNL     1     -18.493 -14.457  -2.821  1.00  0.00     0.013 C 
HETATM    5  C   UNL     1     -18.988 -11.989  -3.384  1.00  0.00     0.083 C 
HETATM    6  O   UNL     1     -19.750 -11.982  -2.119  1.00  0.00    -0.320 OA
HETATM    7  C   UNL     1     -18.950 -11.542  -0.917  1.00  0.00     0.288 C 
HETATM    8  O   UNL     1     -18.290 -10.281  -0.984  1.00  0.00    -0.323 OA
HETATM    9  C   UNL     1     -17.360 -10.576  -1.993  1.00  0.00     0.173 C 
HETATM   10  C   UNL     1     -18.376 -10.563  -3.333  1.00  0.00     0.054 C 
HETATM   11  C   UNL     1     -19.677  -9.596  -3.236  1.00  0.00     0.017 C 
HETATM   12  C   UNL     1     -20.368  -9.231  -4.329  1.00  0.00     0.014 C 
HETATM   13  C   UNL     1     -21.393 -10.223  -4.896  1.00  0.00     0.053 C 
HETATM   14  C   UNL     1     -20.593 -11.298  -5.601  1.00  0.00     0.125 C 
HETATM   15  C   UNL     1     -21.424 -12.281  -6.420  1.00  0.00     0.165 C 
HETATM   16  O   UNL     1     -22.289 -11.967  -7.226  1.00  0.00    -0.294 OA
HETATM   17  C   UNL     1     -20.899 -13.686  -6.306  1.00  0.00     0.055 C 
HETATM   18  C   UNL     1     -19.984 -13.940  -7.500  1.00  0.00     0.018 C 
HETATM   19  C   UNL     1     -20.416 -13.624  -5.045  1.00  0.00     0.023 C 
HETATM   20  C   UNL     1     -19.750 -12.270  -4.763  1.00  0.00     0.064 C 
HETATM   21  O   UNL     1     -18.008 -12.549  -0.852  1.00  0.00    -0.314 OA
ENDROOT
BRANCH  12  22
HETATM   22  C   UNL     1     -19.879  -8.187  -5.278  1.00  0.00     0.183 C 
BRANCH  22  23
HETATM   23  O   UNL     1     -20.980  -7.701  -6.035  1.00  0.00    -0.321 OA
BRANCH  23  24
HETATM   24  C   UNL     1     -21.508  -6.517  -5.594  1.00  0.00     0.263 C 
HETATM   25  O   UNL     1     -22.544  -6.364  -4.991  1.00  0.00    -0.265 OA
BRANCH  24  26
HETATM   26  C   UNL     1     -20.577  -5.389  -5.980  1.00  0.00     0.149 C 
BRANCH  26  27
HETATM   27  C   UNL     1     -20.875  -4.841  -7.348  1.00  0.00    -0.046 A 
HETATM   28  C   UNL     1     -19.873  -4.837  -8.355  1.00  0.00     0.010 A 
HETATM   29  C   UNL     1     -20.164  -4.374  -9.638  1.00  0.00     0.040 A 
HETATM   30  C   UNL     1     -21.444  -3.918  -9.947  1.00  0.00     0.099 A 
HETATM   31  C   UNL     1     -22.434  -3.927  -8.964  1.00  0.00     0.101 A 
HETATM   32  C   UNL     1     -22.154  -4.391  -7.681  1.00  0.00     0.047 A 
BRANCH  30  33
HETATM   33  O   UNL     1     -21.736  -3.472 -11.205  1.00  0.00    -0.358 OA
HETATM   34  H   UNL     1     -22.644  -3.134 -11.217  1.00  0.00     0.217 HD
ENDBRANCH  30  33
BRANCH  31  35
HETATM   35  O   UNL     1     -23.699  -3.459  -9.164  1.00  0.00    -0.353 OA
HETATM   36  C   UNL     1     -24.517  -4.422  -9.812  1.00  0.00     0.210 C 
ENDBRANCH  31  35
ENDBRANCH  26  27
ENDBRANCH  24  26
ENDBRANCH  23  24
ENDBRANCH  22  23
ENDBRANCH  12  22
BRANCH  14  37
HETATM   37  O   UNL     1     -19.726 -10.709  -6.597  1.00  0.00    -0.382 OA
HETATM   38  H   UNL     1     -19.396 -11.473  -7.145  1.00  0.00     0.211 HD
ENDBRANCH  14  37
BRANCH   1  39
HETATM   39  C   UNL     1     -16.029 -13.196  -0.602  1.00  0.00    -0.056 C 
HETATM   40  C   UNL     1     -15.638 -12.918   0.683  1.00  0.00     0.017 C 
HETATM   41  C   UNL     1     -15.112 -14.265  -1.201  1.00  0.00     0.046 C 
ENDBRANCH   1  39
BRANCH   7  42
HETATM   42  C   UNL     1     -19.878 -11.474   0.298  1.00  0.00     0.140 C 
BRANCH  42  43
HETATM   43  C   UNL     1     -20.981 -10.474   0.716  1.00  0.00    -0.051 C 
HETATM   44  C   UNL     1     -20.852  -9.218   1.343  1.00  0.00     0.007 C 
HETATM   45  C   UNL     1     -21.825  -8.219   1.108  1.00  0.00     0.001 C 
HETATM   46  C   UNL     1     -22.951  -8.489   0.325  1.00  0.00     0.000 C 
HETATM   47  C   UNL     1     -23.158  -9.791  -0.181  1.00  0.00     0.001 C 
HETATM   48  C   UNL     1     -22.181 -10.748   0.056  1.00  0.00     0.007 C 
ENDBRANCH  42  43
ENDBRANCH   7  42
TORSDOF 11
ENDMDL
MODEL 8
REMARK VINA RESULT:      -9.6      3.120      5.253
REMARK  11 active torsions:
REMARK  status: ('A' for Active; 'I' for Inactive)
REMARK    1  A    between atoms: C_2  and  C_4 
REMARK    2  A    between atoms: C_10  and  C_11 
REMARK    3  A    between atoms: C_11  and  C_12 
REMARK    4  A    between atoms: C_22  and  C_23 
REMARK    5  A    between atoms: C_23  and  O_24 
REMARK    6  A    between atoms: O_24  and  C_25 
REMARK    7  A    between atoms: C_25  and  C_27 
REMARK    8  A    between atoms: C_27  and  C_28 
REMARK    9  A    between atoms: C_31  and  O_32 
REMARK   10  A    between atoms: C_33  and  O_34 
REMARK   11  A    between atoms: C_38  and  O_39 
ROOT
HETATM    1  C   UNL     1     -21.605 -12.965  -6.245  1.00  0.00     0.116 C 
HETATM    2  C   UNL     1     -22.747 -12.674  -5.305  1.00  0.00     0.053 C 
HETATM    3  C   UNL     1     -22.174 -12.451  -3.931  1.00  0.00     0.020 C 
HETATM    4  C   UNL     1     -21.569 -13.641  -3.159  1.00  0.00     0.013 C 
HETATM    5  C   UNL     1     -21.155 -11.236  -3.993  1.00  0.00     0.083 C 
HETATM    6  O   UNL     1     -19.767 -11.686  -4.222  1.00  0.00    -0.320 OA
HETATM    7  C   UNL     1     -19.507 -12.207  -5.614  1.00  0.00     0.288 C 
HETATM    8  O   UNL     1     -19.829 -11.359  -6.712  1.00  0.00    -0.323 OA
HETATM    9  C   UNL     1     -21.224 -11.323  -6.557  1.00  0.00     0.173 C 
HETATM   10  C   UNL     1     -21.338 -10.305  -5.223  1.00  0.00     0.054 C 
HETATM   11  C   UNL     1     -20.148  -9.214  -5.051  1.00  0.00     0.017 C 
HETATM   12  C   UNL     1     -20.284  -8.140  -4.253  1.00  0.00     0.014 C 
HETATM   13  C   UNL     1     -20.057  -8.332  -2.747  1.00  0.00     0.053 C 
HETATM   14  C   UNL     1     -21.287  -9.041  -2.223  1.00  0.00     0.125 C 
HETATM   15  C   UNL     1     -21.367  -9.147  -0.703  1.00  0.00     0.165 C 
HETATM   16  O   UNL     1     -21.197  -8.218   0.074  1.00  0.00    -0.294 OA
HETATM   17  C   UNL     1     -21.918 -10.476  -0.264  1.00  0.00     0.055 C 
HETATM   18  C   UNL     1     -23.413 -10.305  -0.022  1.00  0.00     0.018 C 
HETATM   19  C   UNL     1     -21.446 -11.239  -1.276  1.00  0.00     0.023 C 
HETATM   20  C   UNL     1     -21.532 -10.504  -2.621  1.00  0.00     0.064 C 
HETATM   21  O   UNL     1     -20.331 -13.314  -5.633  1.00  0.00    -0.314 OA
ENDROOT
BRANCH  12  22
HETATM   22  C   UNL     1     -21.089  -6.945  -4.644  1.00  0.00     0.183 C 
BRANCH  22  23
HETATM   23  O   UNL     1     -20.211  -5.937  -5.126  1.00  0.00    -0.321 OA
BRANCH  23  24
HETATM   24  C   UNL     1     -20.148  -5.826  -6.490  1.00  0.00     0.263 C 
HETATM   25  O   UNL     1     -19.797  -6.677  -7.271  1.00  0.00    -0.265 OA
BRANCH  24  26
HETATM   26  C   UNL     1     -20.599  -4.439  -6.891  1.00  0.00     0.149 C 
BRANCH  26  27
HETATM   27  C   UNL     1     -21.038  -4.372  -8.328  1.00  0.00    -0.046 A 
HETATM   28  C   UNL     1     -20.079  -4.227  -9.366  1.00  0.00     0.010 A 
HETATM   29  C   UNL     1     -20.483  -4.214 -10.701  1.00  0.00     0.040 A 
HETATM   30  C   UNL     1     -21.829  -4.352 -11.030  1.00  0.00     0.099 A 
HETATM   31  C   UNL     1     -22.774  -4.503 -10.015  1.00  0.00     0.101 A 
HETATM   32  C   UNL     1     -22.380  -4.521  -8.679  1.00  0.00     0.047 A 
BRANCH  30  33
HETATM   33  O   UNL     1     -22.227  -4.349 -12.337  1.00  0.00    -0.358 OA
HETATM   34  H   UNL     1     -21.772  -3.633 -12.805  1.00  0.00     0.217 HD
ENDBRANCH  30  33
BRANCH  31  35
HETATM   35  O   UNL     1     -24.115  -4.600 -10.241  1.00  0.00    -0.353 OA
HETATM   36  C   UNL     1     -24.802  -3.428  -9.828  1.00  0.00     0.210 C 
ENDBRANCH  31  35
ENDBRANCH  26  27
ENDBRANCH  24  26
ENDBRANCH  23  24
ENDBRANCH  22  23
ENDBRANCH  12  22
BRANCH  14  37
HETATM   37  O   UNL     1     -22.479  -8.291  -2.551  1.00  0.00    -0.382 OA
HETATM   38  H   UNL     1     -23.149  -8.540  -1.855  1.00  0.00     0.211 HD
ENDBRANCH  14  37
BRANCH   1  39
HETATM   39  C   UNL     1     -21.746 -14.531  -6.590  1.00  0.00    -0.056 C 
HETATM   40  C   UNL     1     -22.954 -15.180  -6.628  1.00  0.00     0.017 C 
HETATM   41  C   UNL     1     -20.636 -15.528  -6.243  1.00  0.00     0.046 C 
ENDBRANCH   1  39
BRANCH   7  42
HETATM   42  C   UNL     1     -18.018 -12.535  -5.751  1.00  0.00     0.140 C 
BRANCH  42  43
HETATM   43  C   UNL     1     -17.266 -13.787  -6.261  1.00  0.00    -0.051 C 
HETATM   44  C   UNL     1     -16.749 -14.874  -5.527  1.00  0.00     0.007 C 
HETATM   45  C   UNL     1     -16.655 -16.145  -6.138  1.00  0.00     0.001 C 
HETATM   46  C   UNL     1     -16.995 -16.317  -7.484  1.00  0.00     0.000 C 
HETATM   47  C   UNL     1     -17.370 -15.200  -8.261  1.00  0.00     0.001 C 
HETATM   48  C   UNL     1     -17.465 -13.967  -7.631  1.00  0.00     0.007 C 
ENDBRANCH  42  43
ENDBRANCH   7  42
TORSDOF 11
ENDMDL
MODEL 9
REMARK VINA RESULT:      -9.4      2.674      6.517
REMARK  11 active torsions:
REMARK  status: ('A' for Active; 'I' for Inactive)
REMARK    1  A    between atoms: C_2  and  C_4 
REMARK    2  A    between atoms: C_10  and  C_11 
REMARK    3  A    between atoms: C_11  and  C_12 
REMARK    4  A    between atoms: C_22  and  C_23 
REMARK    5  A    between atoms: C_23  and  O_24 
REMARK    6  A    between atoms: O_24  and  C_25 
REMARK    7  A    between atoms: C_25  and  C_27 
REMARK    8  A    between atoms: C_27  and  C_28 
REMARK    9  A    between atoms: C_31  and  O_32 
REMARK   10  A    between atoms: C_33  and  O_34 
REMARK   11  A    between atoms: C_38  and  O_39 
ROOT
HETATM    1  C   UNL     1     -22.717 -12.364  -1.717  1.00  0.00     0.116 C 
HETATM    2  C   UNL     1     -21.569 -11.831  -0.897  1.00  0.00     0.053 C 
HETATM    3  C   UNL     1     -20.287 -12.240  -1.571  1.00  0.00     0.020 C 
HETATM    4  C   UNL     1     -19.870 -13.725  -1.571  1.00  0.00     0.013 C 
HETATM    5  C   UNL     1     -20.270 -11.644  -3.042  1.00  0.00     0.083 C 
HETATM    6  O   UNL     1     -20.799 -12.601  -4.035  1.00  0.00    -0.320 OA
HETATM    7  C   UNL     1     -22.290 -12.820  -3.949  1.00  0.00     0.288 C 
HETATM    8  O   UNL     1     -23.135 -11.675  -4.019  1.00  0.00    -0.323 OA
HETATM    9  C   UNL     1     -22.757 -11.052  -2.819  1.00  0.00     0.173 C 
HETATM   10  C   UNL     1     -21.248 -10.459  -3.268  1.00  0.00     0.054 C 
HETATM   11  C   UNL     1     -21.056 -10.104  -4.840  1.00  0.00     0.017 C 
HETATM   12  C   UNL     1     -20.052  -9.321  -5.270  1.00  0.00     0.014 C 
HETATM   13  C   UNL     1     -18.668  -9.961  -5.449  1.00  0.00     0.053 C 
HETATM   14  C   UNL     1     -18.105 -10.142  -4.055  1.00  0.00     0.125 C 
HETATM   15  C   UNL     1     -16.643 -10.573  -4.007  1.00  0.00     0.165 C 
HETATM   16  O   UNL     1     -15.735 -10.047  -4.635  1.00  0.00    -0.294 OA
HETATM   17  C   UNL     1     -16.391 -11.572  -2.910  1.00  0.00     0.055 C 
HETATM   18  C   UNL     1     -15.887 -10.809  -1.690  1.00  0.00     0.018 C 
HETATM   19  C   UNL     1     -17.595 -12.188  -2.912  1.00  0.00     0.023 C 
HETATM   20  C   UNL     1     -18.738 -11.187  -3.124  1.00  0.00     0.064 C 
HETATM   21  O   UNL     1     -22.395 -13.391  -2.698  1.00  0.00    -0.314 OA
ENDROOT
BRANCH  12  22
HETATM   22  C   UNL     1     -20.068  -7.836  -5.115  1.00  0.00     0.183 C 
BRANCH  22  23
HETATM   23  O   UNL     1     -20.811  -7.270  -6.186  1.00  0.00    -0.321 OA
BRANCH  23  24
HETATM   24  C   UNL     1     -21.436  -6.086  -5.896  1.00  0.00     0.263 C 
HETATM   25  O   UNL     1     -22.443  -5.937  -5.245  1.00  0.00    -0.265 OA
BRANCH  24  26
HETATM   26  C   UNL     1     -20.658  -4.952  -6.526  1.00  0.00     0.149 C 
BRANCH  26  27
HETATM   27  C   UNL     1     -21.026  -4.734  -7.968  1.00  0.00    -0.046 A 
HETATM   28  C   UNL     1     -20.013  -4.582  -8.953  1.00  0.00     0.010 A 
HETATM   29  C   UNL     1     -20.354  -4.429 -10.296  1.00  0.00     0.040 A 
HETATM   30  C   UNL     1     -21.691  -4.434 -10.687  1.00  0.00     0.099 A 
HETATM   31  C   UNL     1     -22.689  -4.591  -9.725  1.00  0.00     0.101 A 
HETATM   32  C   UNL     1     -22.358  -4.748  -8.382  1.00  0.00     0.047 A 
BRANCH  30  33
HETATM   33  O   UNL     1     -22.029  -4.294 -12.004  1.00  0.00    -0.358 OA
HETATM   34  H   UNL     1     -22.988  -4.170 -12.072  1.00  0.00     0.217 HD
ENDBRANCH  30  33
BRANCH  31  35
HETATM   35  O   UNL     1     -24.022  -4.563 -10.010  1.00  0.00    -0.353 OA
HETATM   36  C   UNL     1     -24.601  -3.308  -9.686  1.00  0.00     0.210 C 
ENDBRANCH  31  35
ENDBRANCH  26  27
ENDBRANCH  24  26
ENDBRANCH  23  24
ENDBRANCH  22  23
ENDBRANCH  12  22
BRANCH  14  37
HETATM   37  O   UNL     1     -18.087  -8.879  -3.351  1.00  0.00    -0.382 OA
HETATM   38  H   UNL     1     -19.041  -8.598  -3.286  1.00  0.00     0.211 HD
ENDBRANCH  14  37
BRANCH   1  39
HETATM   39  C   UNL     1     -23.335 -13.558  -0.830  1.00  0.00    -0.056 C 
HETATM   40  C   UNL     1     -24.403 -14.314  -1.241  1.00  0.00     0.017 C 
HETATM   41  C   UNL     1     -23.285 -13.525   0.700  1.00  0.00     0.046 C 
ENDBRANCH   1  39
BRANCH   7  42
HETATM   42  C   UNL     1     -22.723 -13.740  -5.094  1.00  0.00     0.140 C 
BRANCH  42  43
HETATM   43  C   UNL     1     -23.632 -14.990  -5.143  1.00  0.00    -0.051 C 
HETATM   44  C   UNL     1     -23.764 -16.032  -4.201  1.00  0.00     0.007 C 
HETATM   45  C   UNL     1     -24.994 -16.720  -4.093  1.00  0.00     0.001 C 
HETATM   46  C   UNL     1     -26.053 -16.432  -4.960  1.00  0.00     0.000 C 
HETATM   47  C   UNL     1     -25.873 -15.495  -6.000  1.00  0.00     0.001 C 
HETATM   48  C   UNL     1     -24.659 -14.826  -6.075  1.00  0.00     0.007 C 
ENDBRANCH  42  43
ENDBRANCH   7  42
TORSDOF 11
ENDMDL
