MODEL 1
REMARK VINA RESULT:      -9.1      0.000      0.000
REMARK  7 active torsions:
REMARK  status: ('A' for Active; 'I' for Inactive)
REMARK    1  A    between atoms: O_1  and  C_2 
REMARK    2  A    between atoms: C_7  and  O_8 
REMARK    3  A    between atoms: N_10  and  C_11 
REMARK    4  A    between atoms: C_11  and  N_13 
REMARK    5  A    between atoms: N_13  and  C_14 
REMARK    6  A    between atoms: C_14  and  C_15 
REMARK    7  A    between atoms: C_15  and  C_16 
ROOT
HETATM    1  C   UNL     1     -24.135  -3.477 -11.181  1.00  0.00     0.099 A 
HETATM    2  C   UNL     1     -22.754  -3.573 -11.333  1.00  0.00     0.047 A 
HETATM    3  C   UNL     1     -21.916  -3.622 -10.205  1.00  0.00    -0.047 A 
HETATM    4  C   UNL     1     -22.478  -3.551  -8.915  1.00  0.00    -0.031 A 
HETATM    5  C   UNL     1     -23.872  -3.458  -8.778  1.00  0.00     0.048 A 
HETATM    6  C   UNL     1     -24.694  -3.420  -9.906  1.00  0.00     0.099 A 
HETATM    7  C   UNL     1     -21.600  -3.594  -7.679  1.00  0.00     0.164 C 
HETATM    8  N   UNL     1     -20.950  -4.909  -7.530  1.00  0.00    -0.354 N 
HETATM    9  C   UNL     1     -19.713  -5.079  -8.307  1.00  0.00     0.126 C 
HETATM   10  C   UNL     1     -19.915  -5.106  -9.823  1.00  0.00     0.025 C 
HETATM   11  C   UNL     1     -20.425  -3.779 -10.395  1.00  0.00     0.041 C 
ENDROOT
BRANCH   8  12
HETATM   12  C   UNL     1     -21.468  -5.883  -6.666  1.00  0.00     0.170 C 
HETATM   13  S   UNL     1     -23.011  -5.805  -5.989  1.00  0.00    -0.041 SA
BRANCH  12  14
HETATM   14  N   UNL     1     -20.603  -6.942  -6.420  1.00  0.00    -0.367 N 
HETATM   15  H   UNL     1     -20.018  -7.202  -7.199  1.00  0.00     0.161 HD
BRANCH  14  16
HETATM   16  C   UNL     1     -20.937  -8.047  -5.511  1.00  0.00     0.126 C 
BRANCH  16  17
HETATM   17  C   UNL     1     -20.081  -8.113  -4.242  1.00  0.00     0.058 C 
BRANCH  17  18
HETATM   18  C   UNL     1     -20.870  -8.058  -2.956  1.00  0.00    -0.057 A 
HETATM   19  C   UNL     1     -21.010  -9.195  -2.147  1.00  0.00     0.009 A 
HETATM   20  C   UNL     1     -21.760  -9.143  -0.970  1.00  0.00     0.024 A 
HETATM   21  C   UNL     1     -22.359  -7.947  -0.587  1.00  0.00     0.034 A 
HETATM   22 CL   UNL     1     -23.308  -7.885   0.848  1.00  0.00    -0.084 Cl
HETATM   23  C   UNL     1     -22.198  -6.799  -1.358  1.00  0.00     0.024 A 
HETATM   24  C   UNL     1     -21.451  -6.852  -2.537  1.00  0.00     0.009 A 
ENDBRANCH  17  18
ENDBRANCH  16  17
ENDBRANCH  14  16
ENDBRANCH  12  14
ENDBRANCH   8  12
BRANCH   6  25
HETATM   25  O   UNL     1     -26.051  -3.328  -9.776  1.00  0.00    -0.358 OA
HETATM   26  H   UNL     1     -26.280  -3.367  -8.833  1.00  0.00     0.217 HD
ENDBRANCH   6  25
BRANCH   1  27
HETATM   27  O   UNL     1     -24.952  -3.448 -12.277  1.00  0.00    -0.358 OA
HETATM   28  H   UNL     1     -25.839  -3.737 -12.018  1.00  0.00     0.217 HD
ENDBRANCH   1  27
TORSDOF 7
ENDMDL
MODEL 2
REMARK VINA RESULT:      -8.6      1.685      2.312
REMARK  7 active torsions:
REMARK  status: ('A' for Active; 'I' for Inactive)
REMARK    1  A    between atoms: O_1  and  C_2 
REMARK    2  A    between atoms: C_7  and  O_8 
REMARK    3  A    between atoms: N_10  and  C_11 
REMARK    4  A    between atoms: C_11  and  N_13 
REMARK    5  A    between atoms: N_13  and  C_14 
REMARK    6  A    between atoms: C_14  and  C_15 
REMARK    7  A    between atoms: C_15  and  C_16 
ROOT
HETATM    1  C   UNL     1     -23.086  -4.413 -10.536  1.00  0.00     0.099 A 
HETATM    2  C   UNL     1     -21.725  -4.225 -10.315  1.00  0.00     0.047 A 
HETATM    3  C   UNL     1     -21.228  -4.088  -9.007  1.00  0.00    -0.047 A 
HETATM    4  C   UNL     1     -22.119  -4.120  -7.916  1.00  0.00    -0.031 A 
HETATM    5  C   UNL     1     -23.489  -4.314  -8.154  1.00  0.00     0.048 A 
HETATM    6  C   UNL     1     -23.968  -4.458  -9.458  1.00  0.00     0.099 A 
HETATM    7  C   UNL     1     -21.615  -3.969  -6.493  1.00  0.00     0.164 C 
HETATM    8  N   UNL     1     -20.785  -5.121  -6.094  1.00  0.00    -0.354 N 
HETATM    9  C   UNL     1     -19.377  -5.041  -6.508  1.00  0.00     0.126 C 
HETATM   10  C   UNL     1     -19.154  -5.125  -8.019  1.00  0.00     0.025 C 
HETATM   11  C   UNL     1     -19.739  -3.938  -8.790  1.00  0.00     0.041 C 
ENDROOT
BRANCH   8  12
HETATM   12  C   UNL     1     -21.317  -6.171  -5.333  1.00  0.00     0.170 C 
HETATM   13  S   UNL     1     -21.184  -7.796  -5.765  1.00  0.00    -0.041 SA
BRANCH  12  14
HETATM   14  N   UNL     1     -21.957  -5.762  -4.170  1.00  0.00    -0.367 N 
HETATM   15  H   UNL     1     -22.583  -4.979  -4.283  1.00  0.00     0.161 HD
BRANCH  14  16
HETATM   16  C   UNL     1     -21.337  -5.863  -2.843  1.00  0.00     0.126 C 
BRANCH  16  17
HETATM   17  C   UNL     1     -22.279  -6.326  -1.728  1.00  0.00     0.058 C 
BRANCH  17  18
HETATM   18  C   UNL     1     -21.907  -7.652  -1.109  1.00  0.00    -0.057 A 
HETATM   19  C   UNL     1     -22.016  -7.857   0.275  1.00  0.00     0.009 A 
HETATM   20  C   UNL     1     -21.648  -9.078   0.843  1.00  0.00     0.024 A 
HETATM   21  C   UNL     1     -21.188 -10.107   0.028  1.00  0.00     0.034 A 
HETATM   22 CL   UNL     1     -20.707 -11.604   0.728  1.00  0.00    -0.084 Cl
HETATM   23  C   UNL     1     -21.110  -9.933  -1.351  1.00  0.00     0.024 A 
HETATM   24  C   UNL     1     -21.474  -8.711  -1.920  1.00  0.00     0.009 A 
ENDBRANCH  17  18
ENDBRANCH  16  17
ENDBRANCH  14  16
ENDBRANCH  12  14
ENDBRANCH   8  12
BRANCH   6  25
HETATM   25  O   UNL     1     -25.300  -4.646  -9.693  1.00  0.00    -0.358 OA
HETATM   26  H   UNL     1     -25.616  -3.950 -10.293  1.00  0.00     0.217 HD
ENDBRANCH   6  25
BRANCH   1  27
HETATM   27  O   UNL     1     -23.568  -4.564 -11.807  1.00  0.00    -0.358 OA
HETATM   28  H   UNL     1     -23.711  -5.506 -11.980  1.00  0.00     0.217 HD
ENDBRANCH   1  27
TORSDOF 7
ENDMDL
MODEL 3
REMARK VINA RESULT:      -8.4      5.007      9.385
REMARK  7 active torsions:
REMARK  status: ('A' for Active; 'I' for Inactive)
REMARK    1  A    between atoms: O_1  and  C_2 
REMARK    2  A    between atoms: C_7  and  O_8 
REMARK    3  A    between atoms: N_10  and  C_11 
REMARK    4  A    between atoms: C_11  and  N_13 
REMARK    5  A    between atoms: N_13  and  C_14 
REMARK    6  A    between atoms: C_14  and  C_15 
REMARK    7  A    between atoms: C_15  and  C_16 
ROOT
HETATM    1  C   UNL     1     -23.238 -10.745  -0.303  1.00  0.00     0.099 A 
HETATM    2  C   UNL     1     -23.120  -9.376  -0.073  1.00  0.00     0.047 A 
HETATM    3  C   UNL     1     -22.161  -8.619  -0.767  1.00  0.00    -0.047 A 
HETATM    4  C   UNL     1     -21.300  -9.253  -1.685  1.00  0.00    -0.031 A 
HETATM    5  C   UNL     1     -21.433 -10.633  -1.907  1.00  0.00     0.048 A 
HETATM    6  C   UNL     1     -22.396 -11.373  -1.218  1.00  0.00     0.099 A 
HETATM    7  C   UNL     1     -20.250  -8.465  -2.444  1.00  0.00     0.164 C 
HETATM    8  N   UNL     1     -20.871  -7.521  -3.391  1.00  0.00    -0.354 N 
HETATM    9  C   UNL     1     -21.284  -6.238  -2.804  1.00  0.00     0.126 C 
HETATM   10  C   UNL     1     -22.440  -6.339  -1.806  1.00  0.00     0.025 C 
HETATM   11  C   UNL     1     -22.088  -7.126  -0.540  1.00  0.00     0.041 C 
ENDROOT
BRANCH   8  12
HETATM   12  C   UNL     1     -20.997  -7.833  -4.752  1.00  0.00     0.170 C 
HETATM   13  S   UNL     1     -20.825  -9.392  -5.371  1.00  0.00    -0.041 SA
BRANCH  12  14
HETATM   14  N   UNL     1     -21.295  -6.742  -5.559  1.00  0.00    -0.367 N 
HETATM   15  H   UNL     1     -22.262  -6.670  -5.836  1.00  0.00     0.161 HD
BRANCH  14  16
HETATM   16  C   UNL     1     -20.339  -6.182  -6.523  1.00  0.00     0.126 C 
BRANCH  16  17
HETATM   17  C   UNL     1     -20.536  -4.694  -6.831  1.00  0.00     0.058 C 
BRANCH  17  18
HETATM   18  C   UNL     1     -20.974  -4.404  -8.246  1.00  0.00    -0.057 A 
HETATM   19  C   UNL     1     -20.063  -4.470  -9.311  1.00  0.00     0.009 A 
HETATM   20  C   UNL     1     -20.471  -4.178 -10.614  1.00  0.00     0.024 A 
HETATM   21  C   UNL     1     -21.797  -3.838 -10.862  1.00  0.00     0.034 A 
HETATM   22 CL   UNL     1     -22.297  -3.451 -12.463  1.00  0.00    -0.084 Cl
HETATM   23  C   UNL     1     -22.722  -3.806  -9.823  1.00  0.00     0.024 A 
HETATM   24  C   UNL     1     -22.315  -4.094  -8.519  1.00  0.00     0.009 A 
ENDBRANCH  17  18
ENDBRANCH  16  17
ENDBRANCH  14  16
ENDBRANCH  12  14
ENDBRANCH   8  12
BRANCH   6  25
HETATM   25  O   UNL     1     -22.528 -12.716  -1.433  1.00  0.00    -0.358 OA
HETATM   26  H   UNL     1     -21.765 -13.173  -1.043  1.00  0.00     0.217 HD
ENDBRANCH   6  25
BRANCH   1  27
HETATM   27  O   UNL     1     -24.183 -11.479   0.358  1.00  0.00    -0.358 OA
HETATM   28  H   UNL     1     -23.750 -12.216   0.811  1.00  0.00     0.217 HD
ENDBRANCH   1  27
TORSDOF 7
ENDMDL
MODEL 4
REMARK VINA RESULT:      -8.1      5.865      7.745
REMARK  7 active torsions:
REMARK  status: ('A' for Active; 'I' for Inactive)
REMARK    1  A    between atoms: O_1  and  C_2 
REMARK    2  A    between atoms: C_7  and  O_8 
REMARK    3  A    between atoms: N_10  and  C_11 
REMARK    4  A    between atoms: C_11  and  N_13 
REMARK    5  A    between atoms: N_13  and  C_14 
REMARK    6  A    between atoms: C_14  and  C_15 
REMARK    7  A    between atoms: C_15  and  C_16 
ROOT
HETATM    1  C   UNL     1     -22.228  -7.979  -0.074  1.00  0.00     0.099 A 
HETATM    2  C   UNL     1     -22.345  -7.165  -1.198  1.00  0.00     0.047 A 
HETATM    3  C   UNL     1     -21.459  -7.312  -2.279  1.00  0.00    -0.047 A 
HETATM    4  C   UNL     1     -20.434  -8.276  -2.215  1.00  0.00    -0.031 A 
HETATM    5  C   UNL     1     -20.330  -9.092  -1.077  1.00  0.00     0.048 A 
HETATM    6  C   UNL     1     -21.222  -8.942  -0.013  1.00  0.00     0.099 A 
HETATM    7  C   UNL     1     -19.458  -8.456  -3.362  1.00  0.00     0.164 C 
HETATM    8  N   UNL     1     -20.135  -8.980  -4.563  1.00  0.00    -0.354 N 
HETATM    9  C   UNL     1     -20.792  -7.962  -5.396  1.00  0.00     0.126 C 
HETATM   10  C   UNL     1     -22.000  -7.289  -4.741  1.00  0.00     0.025 C 
HETATM   11  C   UNL     1     -21.640  -6.453  -3.510  1.00  0.00     0.041 C 
ENDROOT
BRANCH   8  12
HETATM   12  C   UNL     1     -20.092 -10.343  -4.885  1.00  0.00     0.170 C 
HETATM   13  S   UNL     1     -18.724 -11.308  -4.680  1.00  0.00    -0.041 SA
BRANCH  12  14
HETATM   14  N   UNL     1     -21.288 -10.848  -5.378  1.00  0.00    -0.367 N 
HETATM   15  H   UNL     1     -21.723 -10.285  -6.094  1.00  0.00     0.161 HD
BRANCH  14  16
HETATM   16  C   UNL     1     -22.226 -11.621  -4.554  1.00  0.00     0.126 C 
BRANCH  16  17
HETATM   17  C   UNL     1     -22.916 -10.820  -3.445  1.00  0.00     0.058 C 
BRANCH  17  18
HETATM   18  C   UNL     1     -22.899 -11.488  -2.091  1.00  0.00    -0.057 A 
HETATM   19  C   UNL     1     -21.894 -12.406  -1.754  1.00  0.00     0.009 A 
HETATM   20  C   UNL     1     -21.898 -13.038  -0.508  1.00  0.00     0.024 A 
HETATM   21  C   UNL     1     -22.897 -12.741   0.413  1.00  0.00     0.034 A 
HETATM   22 CL   UNL     1     -22.921 -13.538   1.938  1.00  0.00    -0.084 Cl
HETATM   23  C   UNL     1     -23.880 -11.804   0.108  1.00  0.00     0.024 A 
HETATM   24  C   UNL     1     -23.879 -11.174  -1.138  1.00  0.00     0.009 A 
ENDBRANCH  17  18
ENDBRANCH  16  17
ENDBRANCH  14  16
ENDBRANCH  12  14
ENDBRANCH   8  12
BRANCH   6  25
HETATM   25  O   UNL     1     -21.124  -9.734   1.096  1.00  0.00    -0.358 OA
HETATM   26  H   UNL     1     -21.635 -10.546   0.949  1.00  0.00     0.217 HD
ENDBRANCH   6  25
BRANCH   1  27
HETATM   27  O   UNL     1     -23.100  -7.849   0.970  1.00  0.00    -0.358 OA
HETATM   28  H   UNL     1     -23.979  -7.641   0.623  1.00  0.00     0.217 HD
ENDBRANCH   1  27
TORSDOF 7
ENDMDL
MODEL 5
REMARK VINA RESULT:      -7.5      4.577      8.963
REMARK  7 active torsions:
REMARK  status: ('A' for Active; 'I' for Inactive)
REMARK    1  A    between atoms: O_1  and  C_2 
REMARK    2  A    between atoms: C_7  and  O_8 
REMARK    3  A    between atoms: N_10  and  C_11 
REMARK    4  A    between atoms: C_11  and  N_13 
REMARK    5  A    between atoms: N_13  and  C_14 
REMARK    6  A    between atoms: C_14  and  C_15 
REMARK    7  A    between atoms: C_15  and  C_16 
ROOT
HETATM    1  C   UNL     1     -21.167  -8.829   0.171  1.00  0.00     0.099 A 
HETATM    2  C   UNL     1     -20.181  -9.457  -0.584  1.00  0.00     0.047 A 
HETATM    3  C   UNL     1     -20.307  -9.552  -1.981  1.00  0.00    -0.047 A 
HETATM    4  C   UNL     1     -21.449  -9.026  -2.616  1.00  0.00    -0.031 A 
HETATM    5  C   UNL     1     -22.434  -8.393  -1.841  1.00  0.00     0.048 A 
HETATM    6  C   UNL     1     -22.293  -8.297  -0.455  1.00  0.00     0.099 A 
HETATM    7  C   UNL     1     -21.618  -9.118  -4.121  1.00  0.00     0.164 C 
HETATM    8  N   UNL     1     -20.616  -8.294  -4.823  1.00  0.00    -0.354 N 
HETATM    9  C   UNL     1     -19.311  -8.941  -5.018  1.00  0.00     0.126 C 
HETATM   10  C   UNL     1     -18.526  -9.187  -3.728  1.00  0.00     0.025 C 
HETATM   11  C   UNL     1     -19.197 -10.191  -2.786  1.00  0.00     0.041 C 
ENDROOT
BRANCH   8  12
HETATM   12  C   UNL     1     -20.933  -7.015  -5.301  1.00  0.00     0.170 C 
HETATM   13  S   UNL     1     -22.468  -6.328  -5.182  1.00  0.00    -0.041 SA
BRANCH  12  14
HETATM   14  N   UNL     1     -19.861  -6.343  -5.875  1.00  0.00    -0.367 N 
HETATM   15  H   UNL     1     -18.957  -6.588  -5.501  1.00  0.00     0.161 HD
BRANCH  14  16
HETATM   16  C   UNL     1     -19.963  -4.966  -6.376  1.00  0.00     0.126 C 
BRANCH  16  17
HETATM   17  C   UNL     1     -19.539  -4.782  -7.837  1.00  0.00     0.058 C 
BRANCH  17  18
HETATM   18  C   UNL     1     -20.657  -4.366  -8.762  1.00  0.00    -0.057 A 
HETATM   19  C   UNL     1     -20.456  -4.294 -10.148  1.00  0.00     0.009 A 
HETATM   20  C   UNL     1     -21.489  -3.887 -10.996  1.00  0.00     0.024 A 
HETATM   21  C   UNL     1     -22.733  -3.567 -10.462  1.00  0.00     0.034 A 
HETATM   22 CL   UNL     1     -24.000  -3.038 -11.501  1.00  0.00    -0.084 Cl
HETATM   23  C   UNL     1     -22.961  -3.671  -9.093  1.00  0.00     0.024 A 
HETATM   24  C   UNL     1     -21.928  -4.074  -8.245  1.00  0.00     0.009 A 
ENDBRANCH  17  18
ENDBRANCH  16  17
ENDBRANCH  14  16
ENDBRANCH  12  14
ENDBRANCH   8  12
BRANCH   6  25
HETATM   25  O   UNL     1     -23.249  -7.683   0.302  1.00  0.00    -0.358 OA
HETATM   26  H   UNL     1     -22.847  -6.931   0.768  1.00  0.00     0.217 HD
ENDBRANCH   6  25
BRANCH   1  27
HETATM   27  O   UNL     1     -21.036  -8.721   1.528  1.00  0.00    -0.358 OA
HETATM   28  H   UNL     1     -20.153  -8.384   1.734  1.00  0.00     0.217 HD
ENDBRANCH   1  27
TORSDOF 7
ENDMDL
MODEL 6
REMARK VINA RESULT:      -7.5      6.608      9.650
REMARK  7 active torsions:
REMARK  status: ('A' for Active; 'I' for Inactive)
REMARK    1  A    between atoms: O_1  and  C_2 
REMARK    2  A    between atoms: C_7  and  O_8 
REMARK    3  A    between atoms: N_10  and  C_11 
REMARK    4  A    between atoms: C_11  and  N_13 
REMARK    5  A    between atoms: N_13  and  C_14 
REMARK    6  A    between atoms: C_14  and  C_15 
REMARK    7  A    between atoms: C_15  and  C_16 
ROOT
HETATM    1  C   UNL     1     -13.725 -13.419  -4.150  1.00  0.00     0.099 A 
HETATM    2  C   UNL     1     -14.353 -12.894  -3.024  1.00  0.00     0.047 A 
HETATM    3  C   UNL     1     -15.095 -11.703  -3.113  1.00  0.00    -0.047 A 
HETATM    4  C   UNL     1     -15.183 -11.026  -4.346  1.00  0.00    -0.031 A 
HETATM    5  C   UNL     1     -14.547 -11.570  -5.473  1.00  0.00     0.048 A 
HETATM    6  C   UNL     1     -13.821 -12.758  -5.373  1.00  0.00     0.099 A 
HETATM    7  C   UNL     1     -15.970  -9.736  -4.473  1.00  0.00     0.164 C 
HETATM    8  N   UNL     1     -17.414  -9.969  -4.281  1.00  0.00    -0.354 N 
HETATM    9  C   UNL     1     -17.855  -9.997  -2.879  1.00  0.00     0.126 C 
HETATM   10  C   UNL     1     -17.333 -11.188  -2.073  1.00  0.00     0.025 C 
HETATM   11  C   UNL     1     -15.812 -11.182  -1.889  1.00  0.00     0.041 C 
ENDROOT
BRANCH   8  12
HETATM   12  C   UNL     1     -18.281 -10.097  -5.375  1.00  0.00     0.170 C 
HETATM   13  S   UNL     1     -18.501 -11.536  -6.227  1.00  0.00    -0.041 SA
BRANCH  12  14
HETATM   14  N   UNL     1     -18.967  -8.933  -5.695  1.00  0.00    -0.367 N 
HETATM   15  H   UNL     1     -18.394  -8.105  -5.754  1.00  0.00     0.161 HD
BRANCH  14  16
HETATM   16  C   UNL     1     -20.354  -8.688  -5.282  1.00  0.00     0.126 C 
BRANCH  16  17
HETATM   17  C   UNL     1     -20.580  -7.363  -4.545  1.00  0.00     0.058 C 
BRANCH  17  18
HETATM   18  C   UNL     1     -21.212  -7.509  -3.182  1.00  0.00    -0.057 A 
HETATM   19  C   UNL     1     -21.763  -6.401  -2.521  1.00  0.00     0.009 A 
HETATM   20  C   UNL     1     -22.326  -6.539  -1.250  1.00  0.00     0.024 A 
HETATM   21  C   UNL     1     -22.357  -7.790  -0.642  1.00  0.00     0.034 A 
HETATM   22 CL   UNL     1     -23.024  -7.958   0.936  1.00  0.00    -0.084 Cl
HETATM   23  C   UNL     1     -21.849  -8.906  -1.300  1.00  0.00     0.024 A 
HETATM   24  C   UNL     1     -21.283  -8.769  -2.569  1.00  0.00     0.009 A 
ENDBRANCH  17  18
ENDBRANCH  16  17
ENDBRANCH  14  16
ENDBRANCH  12  14
ENDBRANCH   8  12
BRANCH   6  25
HETATM   25  O   UNL     1     -13.200 -13.289  -6.468  1.00  0.00    -0.358 OA
HETATM   26  H   UNL     1     -12.738 -14.102  -6.205  1.00  0.00     0.217 HD
ENDBRANCH   6  25
BRANCH   1  27
HETATM   27  O   UNL     1     -13.019 -14.586  -4.068  1.00  0.00    -0.358 OA
HETATM   28  H   UNL     1     -13.589 -15.275  -3.697  1.00  0.00     0.217 HD
ENDBRANCH   1  27
TORSDOF 7
ENDMDL
MODEL 7
REMARK VINA RESULT:      -7.4      6.558      9.014
REMARK  7 active torsions:
REMARK  status: ('A' for Active; 'I' for Inactive)
REMARK    1  A    between atoms: O_1  and  C_2 
REMARK    2  A    between atoms: C_7  and  O_8 
REMARK    3  A    between atoms: N_10  and  C_11 
REMARK    4  A    between atoms: C_11  and  N_13 
REMARK    5  A    between atoms: N_13  and  C_14 
REMARK    6  A    between atoms: C_14  and  C_15 
REMARK    7  A    between atoms: C_15  and  C_16 
ROOT
HETATM    1  C   UNL     1     -21.585  -6.885  -2.917  1.00  0.00     0.099 A 
HETATM    2  C   UNL     1     -21.816  -7.044  -1.553  1.00  0.00     0.047 A 
HETATM    3  C   UNL     1     -21.870  -8.329  -0.985  1.00  0.00    -0.047 A 
HETATM    4  C   UNL     1     -21.710  -9.462  -1.807  1.00  0.00    -0.031 A 
HETATM    5  C   UNL     1     -21.475  -9.286  -3.179  1.00  0.00     0.048 A 
HETATM    6  C   UNL     1     -21.414  -8.004  -3.730  1.00  0.00     0.099 A 
HETATM    7  C   UNL     1     -21.770 -10.862  -1.225  1.00  0.00     0.164 C 
HETATM    8  N   UNL     1     -20.628 -11.117  -0.327  1.00  0.00    -0.354 N 
HETATM    9  C   UNL     1     -20.804 -10.632   1.050  1.00  0.00     0.126 C 
HETATM   10  C   UNL     1     -20.852  -9.109   1.185  1.00  0.00     0.025 C 
HETATM   11  C   UNL     1     -22.069  -8.473   0.507  1.00  0.00     0.041 C 
ENDROOT
BRANCH   8  12
HETATM   12  C   UNL     1     -19.497 -11.817  -0.770  1.00  0.00     0.170 C 
HETATM   13  S   UNL     1     -19.390 -12.555  -2.282  1.00  0.00    -0.041 SA
BRANCH  12  14
HETATM   14  N   UNL     1     -18.451 -11.841   0.144  1.00  0.00    -0.367 N 
HETATM   15  H   UNL     1     -18.336 -10.995   0.680  1.00  0.00     0.161 HD
BRANCH  14  16
HETATM   16  C   UNL     1     -17.211 -12.592  -0.087  1.00  0.00     0.126 C 
BRANCH  16  17
HETATM   17  C   UNL     1     -15.988 -11.728  -0.410  1.00  0.00     0.058 C 
BRANCH  17  18
HETATM   18  C   UNL     1     -15.874 -11.328  -1.862  1.00  0.00    -0.057 A 
HETATM   19  C   UNL     1     -16.307 -10.067  -2.298  1.00  0.00     0.009 A 
HETATM   20  C   UNL     1     -16.220  -9.713  -3.646  1.00  0.00     0.024 A 
HETATM   21  C   UNL     1     -15.681 -10.611  -4.562  1.00  0.00     0.034 A 
HETATM   22 CL   UNL     1     -15.598 -10.189  -6.228  1.00  0.00    -0.084 Cl
HETATM   23  C   UNL     1     -15.212 -11.852  -4.139  1.00  0.00     0.024 A 
HETATM   24  C   UNL     1     -15.302 -12.208  -2.792  1.00  0.00     0.009 A 
ENDBRANCH  17  18
ENDBRANCH  16  17
ENDBRANCH  14  16
ENDBRANCH  12  14
ENDBRANCH   8  12
BRANCH   6  25
HETATM   25  O   UNL     1     -21.186  -7.830  -5.065  1.00  0.00    -0.358 OA
HETATM   26  H   UNL     1     -20.428  -8.376  -5.329  1.00  0.00     0.217 HD
ENDBRANCH   6  25
BRANCH   1  27
HETATM   27  O   UNL     1     -21.514  -5.636  -3.467  1.00  0.00    -0.358 OA
HETATM   28  H   UNL     1     -21.251  -5.004  -2.783  1.00  0.00     0.217 HD
ENDBRANCH   1  27
TORSDOF 7
ENDMDL
MODEL 8
REMARK VINA RESULT:      -7.4      6.085      8.656
REMARK  7 active torsions:
REMARK  status: ('A' for Active; 'I' for Inactive)
REMARK    1  A    between atoms: O_1  and  C_2 
REMARK    2  A    between atoms: C_7  and  O_8 
REMARK    3  A    between atoms: N_10  and  C_11 
REMARK    4  A    between atoms: C_11  and  N_13 
REMARK    5  A    between atoms: N_13  and  C_14 
REMARK    6  A    between atoms: C_14  and  C_15 
REMARK    7  A    between atoms: C_15  and  C_16 
ROOT
HETATM    1  C   UNL     1     -22.530  -7.962  -0.224  1.00  0.00     0.099 A 
HETATM    2  C   UNL     1     -22.353  -6.984  -1.199  1.00  0.00     0.047 A 
HETATM    3  C   UNL     1     -21.364  -7.134  -2.186  1.00  0.00    -0.047 A 
HETATM    4  C   UNL     1     -20.534  -8.273  -2.175  1.00  0.00    -0.031 A 
HETATM    5  C   UNL     1     -20.727  -9.252  -1.187  1.00  0.00     0.048 A 
HETATM    6  C   UNL     1     -21.719  -9.095  -0.217  1.00  0.00     0.099 A 
HETATM    7  C   UNL     1     -19.453  -8.461  -3.222  1.00  0.00     0.164 C 
HETATM    8  N   UNL     1     -20.036  -8.666  -4.561  1.00  0.00    -0.354 N 
HETATM    9  C   UNL     1     -20.392  -7.432  -5.277  1.00  0.00     0.126 C 
HETATM   10  C   UNL     1     -21.548  -6.648  -4.653  1.00  0.00     0.025 C 
HETATM   11  C   UNL     1     -21.227  -6.084  -3.265  1.00  0.00     0.041 C 
ENDROOT
BRANCH   8  12
HETATM   12  C   UNL     1     -20.179  -9.951  -5.103  1.00  0.00     0.170 C 
HETATM   13  S   UNL     1     -21.322 -11.069  -4.566  1.00  0.00    -0.041 SA
BRANCH  12  14
HETATM   14  N   UNL     1     -19.302 -10.228  -6.144  1.00  0.00    -0.367 N 
HETATM   15  H   UNL     1     -19.733 -10.306  -7.053  1.00  0.00     0.161 HD
BRANCH  14  16
HETATM   16  C   UNL     1     -18.092 -11.042  -5.969  1.00  0.00     0.126 C 
BRANCH  16  17
HETATM   17  C   UNL     1     -16.852 -10.260  -5.525  1.00  0.00     0.058 C 
BRANCH  17  18
HETATM   18  C   UNL     1     -15.783 -11.105  -4.874  1.00  0.00    -0.057 A 
HETATM   19  C   UNL     1     -14.694 -11.585  -5.616  1.00  0.00     0.009 A 
HETATM   20  C   UNL     1     -13.721 -12.386  -5.012  1.00  0.00     0.024 A 
HETATM   21  C   UNL     1     -13.824 -12.693  -3.659  1.00  0.00     0.034 A 
HETATM   22 CL   UNL     1     -12.642 -13.702  -2.918  1.00  0.00    -0.084 Cl
HETATM   23  C   UNL     1     -14.878 -12.193  -2.901  1.00  0.00     0.024 A 
HETATM   24  C   UNL     1     -15.853 -11.396  -3.504  1.00  0.00     0.009 A 
ENDBRANCH  17  18
ENDBRANCH  16  17
ENDBRANCH  14  16
ENDBRANCH  12  14
ENDBRANCH   8  12
BRANCH   6  25
HETATM   25  O   UNL     1     -21.909 -10.046   0.745  1.00  0.00    -0.358 OA
HETATM   26  H   UNL     1     -21.708 -10.919   0.369  1.00  0.00     0.217 HD
ENDBRANCH   6  25
BRANCH   1  27
HETATM   27  O   UNL     1     -23.504  -7.825   0.726  1.00  0.00    -0.358 OA
HETATM   28  H   UNL     1     -23.568  -6.894   0.981  1.00  0.00     0.217 HD
ENDBRANCH   1  27
TORSDOF 7
ENDMDL
MODEL 9
REMARK VINA RESULT:      -7.3      6.080      8.545
REMARK  7 active torsions:
REMARK  status: ('A' for Active; 'I' for Inactive)
REMARK    1  A    between atoms: O_1  and  C_2 
REMARK    2  A    between atoms: C_7  and  O_8 
REMARK    3  A    between atoms: N_10  and  C_11 
REMARK    4  A    between atoms: C_11  and  N_13 
REMARK    5  A    between atoms: N_13  and  C_14 
REMARK    6  A    between atoms: C_14  and  C_15 
REMARK    7  A    between atoms: C_15  and  C_16 
ROOT
HETATM    1  C   UNL     1     -21.138  -6.344  -4.195  1.00  0.00     0.099 A 
HETATM    2  C   UNL     1     -21.594  -6.378  -2.880  1.00  0.00     0.047 A 
HETATM    3  C   UNL     1     -21.770  -7.606  -2.219  1.00  0.00    -0.047 A 
HETATM    4  C   UNL     1     -21.502  -8.810  -2.901  1.00  0.00    -0.031 A 
HETATM    5  C   UNL     1     -21.040  -8.759  -4.226  1.00  0.00     0.048 A 
HETATM    6  C   UNL     1     -20.861  -7.532  -4.868  1.00  0.00     0.099 A 
HETATM    7  C   UNL     1     -21.688 -10.152  -2.218  1.00  0.00     0.164 C 
HETATM    8  N   UNL     1     -20.716 -10.334  -1.125  1.00  0.00    -0.354 N 
HETATM    9  C   UNL     1     -21.105  -9.727   0.157  1.00  0.00     0.126 C 
HETATM   10  C   UNL     1     -21.141  -8.197   0.149  1.00  0.00     0.025 C 
HETATM   11  C   UNL     1     -22.215  -7.615  -0.775  1.00  0.00     0.041 C 
ENDROOT
BRANCH   8  12
HETATM   12  C   UNL     1     -19.544 -11.080  -1.310  1.00  0.00     0.170 C 
HETATM   13  S   UNL     1     -18.909 -12.126  -0.150  1.00  0.00    -0.041 SA
BRANCH  12  14
HETATM   14  N   UNL     1     -18.947 -10.899  -2.551  1.00  0.00    -0.367 N 
HETATM   15  H   UNL     1     -18.860 -11.736  -3.107  1.00  0.00     0.161 HD
BRANCH  14  16
HETATM   16  C   UNL     1     -17.904  -9.893  -2.793  1.00  0.00     0.126 C 
BRANCH  16  17
HETATM   17  C   UNL     1     -16.499 -10.306  -2.341  1.00  0.00     0.058 C 
BRANCH  17  18
HETATM   18  C   UNL     1     -15.666 -10.960  -3.417  1.00  0.00    -0.057 A 
HETATM   19  C   UNL     1     -14.741 -11.965  -3.101  1.00  0.00     0.009 A 
HETATM   20  C   UNL     1     -13.957 -12.550  -4.099  1.00  0.00     0.024 A 
HETATM   21  C   UNL     1     -14.109 -12.145  -5.421  1.00  0.00     0.034 A 
HETATM   22 CL   UNL     1     -13.126 -12.843  -6.649  1.00  0.00    -0.084 Cl
HETATM   23  C   UNL     1     -15.050 -11.176  -5.757  1.00  0.00     0.024 A 
HETATM   24  C   UNL     1     -15.831 -10.588  -4.760  1.00  0.00     0.009 A 
ENDBRANCH  17  18
ENDBRANCH  16  17
ENDBRANCH  14  16
ENDBRANCH  12  14
ENDBRANCH   8  12
BRANCH   6  25
HETATM   25  O   UNL     1     -20.412  -7.480  -6.157  1.00  0.00    -0.358 OA
HETATM   26  H   UNL     1     -19.913  -6.656  -6.283  1.00  0.00     0.217 HD
ENDBRANCH   6  25
BRANCH   1  27
HETATM   27  O   UNL     1     -20.950  -5.149  -4.832  1.00  0.00    -0.358 OA
HETATM   28  H   UNL     1     -21.697  -4.986  -5.425  1.00  0.00     0.217 HD
ENDBRANCH   1  27
TORSDOF 7
ENDMDL
