REMARK  18 active torsions:
REMARK  status: ('A' for Active; 'I' for Inactive)
REMARK    1  A    between atoms: C_2  and  C_3 
REMARK    2  A    between atoms: C_3  and  C_4 
REMARK    3  A    between atoms: C_4  and  C_5 
REMARK    4  A    between atoms: C_5  and  C_6 
REMARK    5  A    between atoms: C_7  and  C_8 
REMARK    6  A    between atoms: C_8  and  C_9 
REMARK    7  A    between atoms: C_10  and  C_11 
REMARK    8  A    between atoms: C_11  and  C_12 
REMARK    9  A    between atoms: C_13  and  C_14 
REMARK   10  A    between atoms: C_14  and  C_15 
REMARK   11  A    between atoms: C_16  and  C_17 
REMARK   12  A    between atoms: C_17  and  C_18 
REMARK   13  A    between atoms: C_18  and  C_19 
REMARK   14  A    between atoms: C_19  and  C_20 
REMARK       I    between atoms: C_20  and  N_22 
REMARK   15  A    between atoms: N_22  and  C_23 
REMARK   16  A    between atoms: C_23  and  C_24 
REMARK   17  A    between atoms: C_27  and  O_28 
REMARK   18  A    between atoms: C_29  and  O_30 
ROOT
HETATM    1  C   UNL     1      16.165  -8.754   8.138  1.00  0.00     0.027 C 
ENDROOT
BRANCH   1   2
HETATM    2  C   UNL     1      15.634  -7.637   7.286  1.00  0.00    -0.030 C 
HETATM    3  C   UNL     1      15.364  -7.791   5.982  1.00  0.00    -0.027 C 
BRANCH   3   4
HETATM    4  C   UNL     1      14.835  -6.688   5.113  1.00  0.00     0.053 C 
BRANCH   4   5
HETATM    5  C   UNL     1      13.337  -6.660   5.081  1.00  0.00    -0.027 C 
HETATM    6  C   UNL     1      12.608  -7.332   4.173  1.00  0.00    -0.027 C 
BRANCH   6   7
HETATM    7  C   UNL     1      11.113  -7.293   4.148  1.00  0.00     0.053 C 
BRANCH   7   8
HETATM    8  C   UNL     1      10.498  -8.649   4.330  1.00  0.00    -0.027 C 
HETATM    9  C   UNL     1       9.323  -8.998   3.795  1.00  0.00    -0.027 C 
BRANCH   9  10
HETATM   10  C   UNL     1       8.725 -10.356   3.983  1.00  0.00     0.053 C 
BRANCH  10  11
HETATM   11  C   UNL     1       8.512 -11.042   2.664  1.00  0.00    -0.027 C 
HETATM   12  C   UNL     1       7.325 -11.441   2.237  1.00  0.00    -0.030 C 
BRANCH  12  13
HETATM   13  C   UNL     1       7.113 -12.108   0.908  1.00  0.00     0.027 C 
BRANCH  13  14
HETATM   14  C   UNL     1       6.172 -11.284   0.045  1.00  0.00     0.004 C 
BRANCH  14  15
HETATM   15  C   UNL     1       5.977 -11.956  -1.306  1.00  0.00    -0.000 C 
BRANCH  15  16
HETATM   16  C   UNL     1       5.035 -11.140  -2.181  1.00  0.00    -0.005 C 
HETATM   17  C   UNL     1       4.848 -11.816  -3.525  1.00  0.00     0.005 C 
ENDBRANCH  15  16
ENDBRANCH  14  15
ENDBRANCH  13  14
ENDBRANCH  12  13
ENDBRANCH  10  11
ENDBRANCH   9  10
ENDBRANCH   7   8
ENDBRANCH   6   7
ENDBRANCH   4   5
ENDBRANCH   3   4
ENDBRANCH   1   2
BRANCH   1  18
HETATM   18  C   UNL     1      17.514  -8.387   8.747  1.00  0.00     0.013 C 
BRANCH  18  19
HETATM   19  C   UNL     1      18.081  -9.501   9.616  1.00  0.00     0.103 C 
BRANCH  19  20
HETATM   20  C   UNL     1      19.434  -9.103  10.212  1.00  0.00     0.217 C 
HETATM   21  O   UNL     1      19.963  -8.022  10.002  1.00  0.00    -0.274 OA
HETATM   22  N   UNL     1      20.030 -10.045  11.026  1.00  0.00    -0.357 N 
HETATM   23  H   UNL     1      20.946  -9.822  11.415  1.00  0.00     0.162 HD
BRANCH  22  24
HETATM   24  C   UNL     1      19.438 -11.320  11.296  1.00  0.00     0.161 C 
BRANCH  24  25
HETATM   25  C   UNL     1      19.805 -12.374  10.290  1.00  0.00    -0.038 A 
HETATM   26  C   UNL     1      18.861 -13.365   9.983  1.00  0.00     0.012 A 
HETATM   27  C   UNL     1      19.208 -14.444   9.182  1.00  0.00     0.040 A 
HETATM   28  C   UNL     1      20.502 -14.529   8.666  1.00  0.00     0.099 A 
HETATM   29  C   UNL     1      21.473 -13.541   8.952  1.00  0.00     0.101 A 
HETATM   30  C   UNL     1      21.097 -12.473   9.759  1.00  0.00     0.048 A 
BRANCH  28  31
HETATM   31  O   UNL     1      20.819 -15.609   7.880  1.00  0.00    -0.358 OA
HETATM   32  H   UNL     1      20.023 -16.158   7.750  1.00  0.00     0.217 HD
ENDBRANCH  28  31
BRANCH  29  33
HETATM   33  O   UNL     1      22.742 -13.683   8.454  1.00  0.00    -0.353 OA
HETATM   34  C   UNL     1      23.720 -12.680   8.768  1.00  0.00     0.210 C 
ENDBRANCH  29  33
ENDBRANCH  24  25
ENDBRANCH  22  24
ENDBRANCH  19  20
ENDBRANCH  18  19
ENDBRANCH   1  18
TORSDOF 18
