MODEL 1
REMARK VINA RESULT:      -8.5      0.000      0.000
REMARK  18 active torsions:
REMARK  status: ('A' for Active; 'I' for Inactive)
REMARK    1  A    between atoms: C_2  and  C_3 
REMARK    2  A    between atoms: C_3  and  C_4 
REMARK    3  A    between atoms: C_4  and  C_5 
REMARK    4  A    between atoms: C_5  and  C_6 
REMARK    5  A    between atoms: C_7  and  C_8 
REMARK    6  A    between atoms: C_8  and  C_9 
REMARK    7  A    between atoms: C_10  and  C_11 
REMARK    8  A    between atoms: C_11  and  C_12 
REMARK    9  A    between atoms: C_13  and  C_14 
REMARK   10  A    between atoms: C_14  and  C_15 
REMARK   11  A    between atoms: C_16  and  C_17 
REMARK   12  A    between atoms: C_17  and  C_18 
REMARK   13  A    between atoms: C_18  and  C_19 
REMARK   14  A    between atoms: C_19  and  C_20 
REMARK       I    between atoms: C_20  and  N_22 
REMARK   15  A    between atoms: N_22  and  C_23 
REMARK   16  A    between atoms: C_23  and  C_24 
REMARK   17  A    between atoms: C_27  and  O_28 
REMARK   18  A    between atoms: C_29  and  O_30 
ROOT
HETATM    1  C   UNL     1     -21.360  -6.559  -2.808  1.00  0.00     0.027 C 
ENDROOT
BRANCH   1   2
HETATM    2  C   UNL     1     -21.880  -7.497  -1.756  1.00  0.00    -0.030 C 
HETATM    3  C   UNL     1     -22.381  -7.065  -0.590  1.00  0.00    -0.027 C 
BRANCH   3   4
HETATM    4  C   UNL     1     -22.903  -7.985   0.474  1.00  0.00     0.053 C 
BRANCH   4   5
HETATM    5  C   UNL     1     -22.842  -9.424   0.061  1.00  0.00    -0.027 C 
HETATM    6  C   UNL     1     -23.933 -10.194  -0.088  1.00  0.00    -0.027 C 
BRANCH   6   7
HETATM    7  C   UNL     1     -23.859 -11.631  -0.497  1.00  0.00     0.053 C 
BRANCH   7   8
HETATM    8  C   UNL     1     -22.827 -11.876  -1.557  1.00  0.00    -0.027 C 
HETATM    9  C   UNL     1     -22.812 -11.231  -2.728  1.00  0.00    -0.027 C 
BRANCH   9  10
HETATM   10  C   UNL     1     -21.773 -11.484  -3.774  1.00  0.00     0.053 C 
BRANCH  10  11
HETATM   11  C   UNL     1     -20.733 -10.401  -3.778  1.00  0.00    -0.027 C 
HETATM   12  C   UNL     1     -19.775 -10.311  -2.870  1.00  0.00    -0.030 C 
BRANCH  12  13
HETATM   13  C   UNL     1     -18.724  -9.238  -2.890  1.00  0.00     0.027 C 
BRANCH  13  14
HETATM   14  C   UNL     1     -17.495  -9.714  -3.646  1.00  0.00     0.004 C 
BRANCH  14  15
HETATM   15  C   UNL     1     -16.266  -9.637  -2.751  1.00  0.00    -0.000 C 
BRANCH  15  16
HETATM   16  C   UNL     1     -15.658 -11.019  -2.555  1.00  0.00    -0.005 C 
HETATM   17  C   UNL     1     -15.953 -11.529  -1.158  1.00  0.00     0.005 C 
ENDBRANCH  15  16
ENDBRANCH  14  15
ENDBRANCH  13  14
ENDBRANCH  12  13
ENDBRANCH  10  11
ENDBRANCH   9  10
ENDBRANCH   7   8
ENDBRANCH   6   7
ENDBRANCH   4   5
ENDBRANCH   3   4
ENDBRANCH   1   2
BRANCH   1  18
HETATM   18  C   UNL     1     -21.935  -6.899  -4.179  1.00  0.00     0.013 C 
BRANCH  18  19
HETATM   19  C   UNL     1     -21.375  -6.009  -5.280  1.00  0.00     0.103 C 
BRANCH  19  20
HETATM   20  C   UNL     1     -20.231  -6.704  -6.024  1.00  0.00     0.217 C 
HETATM   21  O   UNL     1     -19.806  -7.807  -5.713  1.00  0.00    -0.274 OA
HETATM   22  N   UNL     1     -19.702  -6.009  -7.093  1.00  0.00    -0.357 N 
HETATM   23  H   UNL     1     -18.919  -6.432  -7.590  1.00  0.00     0.162 HD
BRANCH  22  24
HETATM   24  C   UNL     1     -20.176  -4.717  -7.486  1.00  0.00     0.161 C 
BRANCH  24  25
HETATM   25  C   UNL     1     -20.817  -4.704  -8.845  1.00  0.00    -0.038 A 
HETATM   26  C   UNL     1     -19.994  -4.578  -9.973  1.00  0.00     0.012 A 
HETATM   27  C   UNL     1     -20.548  -4.405 -11.234  1.00  0.00     0.040 A 
HETATM   28  C   UNL     1     -21.937  -4.374 -11.376  1.00  0.00     0.099 A 
HETATM   29  C   UNL     1     -22.792  -4.506 -10.257  1.00  0.00     0.101 A 
HETATM   30  C   UNL     1     -22.208  -4.677  -9.007  1.00  0.00     0.048 A 
BRANCH  28  31
HETATM   31  O   UNL     1     -22.458  -4.197 -12.633  1.00  0.00    -0.358 OA
HETATM   32  H   UNL     1     -22.759  -3.275 -12.731  1.00  0.00     0.217 HD
ENDBRANCH  28  31
BRANCH  29  33
HETATM   33  O   UNL     1     -24.149  -4.434 -10.438  1.00  0.00    -0.353 OA
HETATM   34  C   UNL     1     -24.865  -3.344  -9.839  1.00  0.00     0.210 C 
ENDBRANCH  29  33
ENDBRANCH  24  25
ENDBRANCH  22  24
ENDBRANCH  19  20
ENDBRANCH  18  19
ENDBRANCH   1  18
TORSDOF 18
ENDMDL
MODEL 2
REMARK VINA RESULT:      -8.2      1.493      2.101
REMARK  18 active torsions:
REMARK  status: ('A' for Active; 'I' for Inactive)
REMARK    1  A    between atoms: C_2  and  C_3 
REMARK    2  A    between atoms: C_3  and  C_4 
REMARK    3  A    between atoms: C_4  and  C_5 
REMARK    4  A    between atoms: C_5  and  C_6 
REMARK    5  A    between atoms: C_7  and  C_8 
REMARK    6  A    between atoms: C_8  and  C_9 
REMARK    7  A    between atoms: C_10  and  C_11 
REMARK    8  A    between atoms: C_11  and  C_12 
REMARK    9  A    between atoms: C_13  and  C_14 
REMARK   10  A    between atoms: C_14  and  C_15 
REMARK   11  A    between atoms: C_16  and  C_17 
REMARK   12  A    between atoms: C_17  and  C_18 
REMARK   13  A    between atoms: C_18  and  C_19 
REMARK   14  A    between atoms: C_19  and  C_20 
REMARK       I    between atoms: C_20  and  N_22 
REMARK   15  A    between atoms: N_22  and  C_23 
REMARK   16  A    between atoms: C_23  and  C_24 
REMARK   17  A    between atoms: C_27  and  O_28 
REMARK   18  A    between atoms: C_29  and  O_30 
ROOT
HETATM    1  C   UNL     1     -21.286  -6.310  -2.939  1.00  0.00     0.027 C 
ENDROOT
BRANCH   1   2
HETATM    2  C   UNL     1     -22.176  -6.423  -1.734  1.00  0.00    -0.030 C 
HETATM    3  C   UNL     1     -22.048  -7.407  -0.833  1.00  0.00    -0.027 C 
BRANCH   3   4
HETATM    4  C   UNL     1     -22.927  -7.539   0.376  1.00  0.00     0.053 C 
BRANCH   4   5
HETATM    5  C   UNL     1     -23.379  -8.951   0.597  1.00  0.00    -0.027 C 
HETATM    6  C   UNL     1     -23.351  -9.891  -0.364  1.00  0.00    -0.027 C 
BRANCH   6   7
HETATM    7  C   UNL     1     -23.810 -11.296  -0.134  1.00  0.00     0.053 C 
BRANCH   7   8
HETATM    8  C   UNL     1     -23.728 -12.139  -1.371  1.00  0.00    -0.027 C 
HETATM    9  C   UNL     1     -23.042 -13.286  -1.431  1.00  0.00    -0.027 C 
BRANCH   9  10
HETATM   10  C   UNL     1     -22.973 -14.118  -2.673  1.00  0.00     0.053 C 
BRANCH  10  11
HETATM   11  C   UNL     1     -22.122 -13.459  -3.720  1.00  0.00    -0.027 C 
HETATM   12  C   UNL     1     -22.497 -12.378  -4.385  1.00  0.00    -0.030 C 
BRANCH  12  13
HETATM   13  C   UNL     1     -21.635 -11.710  -5.417  1.00  0.00     0.027 C 
BRANCH  13  14
HETATM   14  C   UNL     1     -20.464 -11.004  -4.754  1.00  0.00     0.004 C 
BRANCH  14  15
HETATM   15  C   UNL     1     -20.957 -10.143  -3.600  1.00  0.00    -0.000 C 
BRANCH  15  16
HETATM   16  C   UNL     1     -19.847  -9.925  -2.580  1.00  0.00    -0.005 C 
HETATM   17  C   UNL     1     -20.066 -10.808  -1.368  1.00  0.00     0.005 C 
ENDBRANCH  15  16
ENDBRANCH  14  15
ENDBRANCH  13  14
ENDBRANCH  12  13
ENDBRANCH  10  11
ENDBRANCH   9  10
ENDBRANCH   7   8
ENDBRANCH   6   7
ENDBRANCH   4   5
ENDBRANCH   3   4
ENDBRANCH   1   2
BRANCH   1  18
HETATM   18  C   UNL     1     -21.942  -6.934  -4.166  1.00  0.00     0.013 C 
BRANCH  18  19
HETATM   19  C   UNL     1     -21.672  -6.138  -5.436  1.00  0.00     0.103 C 
BRANCH  19  20
HETATM   20  C   UNL     1     -20.371  -6.589  -6.105  1.00  0.00     0.217 C 
HETATM   21  O   UNL     1     -19.821  -7.649  -5.847  1.00  0.00    -0.274 OA
HETATM   22  N   UNL     1     -19.850  -5.723  -7.045  1.00  0.00    -0.357 N 
HETATM   23  H   UNL     1     -18.968  -5.981  -7.488  1.00  0.00     0.162 HD
BRANCH  22  24
HETATM   24  C   UNL     1     -20.469  -4.475  -7.374  1.00  0.00     0.161 C 
BRANCH  24  25
HETATM   25  C   UNL     1     -20.927  -4.394  -8.802  1.00  0.00    -0.038 A 
HETATM   26  C   UNL     1     -19.991  -4.623  -9.821  1.00  0.00     0.012 A 
HETATM   27  C   UNL     1     -20.329  -4.407 -11.150  1.00  0.00     0.040 A 
HETATM   28  C   UNL     1     -21.616  -3.975 -11.470  1.00  0.00     0.099 A 
HETATM   29  C   UNL     1     -22.584  -3.743 -10.465  1.00  0.00     0.101 A 
HETATM   30  C   UNL     1     -22.217  -3.966  -9.143  1.00  0.00     0.048 A 
BRANCH  28  31
HETATM   31  O   UNL     1     -21.922  -3.765 -12.792  1.00  0.00    -0.358 OA
HETATM   32  H   UNL     1     -22.086  -2.815 -12.938  1.00  0.00     0.217 HD
ENDBRANCH  28  31
BRANCH  29  33
HETATM   33  O   UNL     1     -23.826  -3.284 -10.822  1.00  0.00    -0.353 OA
HETATM   34  C   UNL     1     -24.852  -3.228  -9.820  1.00  0.00     0.210 C 
ENDBRANCH  29  33
ENDBRANCH  24  25
ENDBRANCH  22  24
ENDBRANCH  19  20
ENDBRANCH  18  19
ENDBRANCH   1  18
TORSDOF 18
ENDMDL
MODEL 3
REMARK VINA RESULT:      -7.9      1.544      4.702
REMARK  18 active torsions:
REMARK  status: ('A' for Active; 'I' for Inactive)
REMARK    1  A    between atoms: C_2  and  C_3 
REMARK    2  A    between atoms: C_3  and  C_4 
REMARK    3  A    between atoms: C_4  and  C_5 
REMARK    4  A    between atoms: C_5  and  C_6 
REMARK    5  A    between atoms: C_7  and  C_8 
REMARK    6  A    between atoms: C_8  and  C_9 
REMARK    7  A    between atoms: C_10  and  C_11 
REMARK    8  A    between atoms: C_11  and  C_12 
REMARK    9  A    between atoms: C_13  and  C_14 
REMARK   10  A    between atoms: C_14  and  C_15 
REMARK   11  A    between atoms: C_16  and  C_17 
REMARK   12  A    between atoms: C_17  and  C_18 
REMARK   13  A    between atoms: C_18  and  C_19 
REMARK   14  A    between atoms: C_19  and  C_20 
REMARK       I    between atoms: C_20  and  N_22 
REMARK   15  A    between atoms: N_22  and  C_23 
REMARK   16  A    between atoms: C_23  and  C_24 
REMARK   17  A    between atoms: C_27  and  O_28 
REMARK   18  A    between atoms: C_29  and  O_30 
ROOT
HETATM    1  C   UNL     1     -20.497  -8.776  -3.840  1.00  0.00     0.027 C 
ENDROOT
BRANCH   1   2
HETATM    2  C   UNL     1     -19.007  -8.928  -3.953  1.00  0.00    -0.030 C 
HETATM    3  C   UNL     1     -18.431  -9.756  -4.836  1.00  0.00    -0.027 C 
BRANCH   3   4
HETATM    4  C   UNL     1     -16.946  -9.924  -4.964  1.00  0.00     0.053 C 
BRANCH   4   5
HETATM    5  C   UNL     1     -16.312 -10.362  -3.678  1.00  0.00    -0.027 C 
HETATM    6  C   UNL     1     -16.542 -11.561  -3.116  1.00  0.00    -0.027 C 
BRANCH   6   7
HETATM    7  C   UNL     1     -15.907 -11.986  -1.830  1.00  0.00     0.053 C 
BRANCH   7   8
HETATM    8  C   UNL     1     -16.851 -11.907  -0.667  1.00  0.00    -0.027 C 
HETATM    9  C   UNL     1     -18.173 -11.760  -0.806  1.00  0.00    -0.027 C 
BRANCH   9  10
HETATM   10  C   UNL     1     -19.102 -11.686   0.364  1.00  0.00     0.053 C 
BRANCH  10  11
HETATM   11  C   UNL     1     -20.451 -11.168  -0.046  1.00  0.00    -0.027 C 
HETATM   12  C   UNL     1     -21.589 -11.728   0.331  1.00  0.00    -0.030 C 
BRANCH  12  13
HETATM   13  C   UNL     1     -22.936 -11.195  -0.064  1.00  0.00     0.027 C 
BRANCH  13  14
HETATM   14  C   UNL     1     -22.785  -9.908  -0.859  1.00  0.00     0.004 C 
BRANCH  14  15
HETATM   15  C   UNL     1     -23.022  -8.705   0.042  1.00  0.00    -0.000 C 
BRANCH  15  16
HETATM   16  C   UNL     1     -21.930  -7.663  -0.154  1.00  0.00    -0.005 C 
HETATM   17  C   UNL     1     -22.282  -6.742  -1.306  1.00  0.00     0.005 C 
ENDBRANCH  15  16
ENDBRANCH  14  15
ENDBRANCH  13  14
ENDBRANCH  12  13
ENDBRANCH  10  11
ENDBRANCH   9  10
ENDBRANCH   7   8
ENDBRANCH   6   7
ENDBRANCH   4   5
ENDBRANCH   3   4
ENDBRANCH   1   2
BRANCH   1  18
HETATM   18  C   UNL     1     -21.115  -8.408  -5.185  1.00  0.00     0.013 C 
BRANCH  18  19
HETATM   19  C   UNL     1     -20.722  -7.010  -5.641  1.00  0.00     0.103 C 
BRANCH  19  20
HETATM   20  C   UNL     1     -21.906  -6.044  -5.546  1.00  0.00     0.217 C 
HETATM   21  O   UNL     1     -22.881  -6.252  -4.840  1.00  0.00    -0.274 OA
HETATM   22  N   UNL     1     -21.805  -4.898  -6.308  1.00  0.00    -0.357 N 
HETATM   23  H   UNL     1     -22.591  -4.248  -6.289  1.00  0.00     0.162 HD
BRANCH  22  24
HETATM   24  C   UNL     1     -20.678  -4.621  -7.145  1.00  0.00     0.161 C 
BRANCH  24  25
HETATM   25  C   UNL     1     -21.029  -4.504  -8.601  1.00  0.00    -0.038 A 
HETATM   26  C   UNL     1     -20.021  -4.719  -9.553  1.00  0.00     0.012 A 
HETATM   27  C   UNL     1     -20.258  -4.470 -10.897  1.00  0.00     0.040 A 
HETATM   28  C   UNL     1     -21.515  -4.020 -11.302  1.00  0.00     0.099 A 
HETATM   29  C   UNL     1     -22.553  -3.802 -10.366  1.00  0.00     0.101 A 
HETATM   30  C   UNL     1     -22.286  -4.057  -9.026  1.00  0.00     0.048 A 
BRANCH  28  31
HETATM   31  O   UNL     1     -21.720  -3.778 -12.638  1.00  0.00    -0.358 OA
HETATM   32  H   UNL     1     -22.503  -4.278 -12.940  1.00  0.00     0.217 HD
ENDBRANCH  28  31
BRANCH  29  33
HETATM   33  O   UNL     1     -23.762  -3.325 -10.803  1.00  0.00    -0.353 OA
HETATM   34  C   UNL     1     -24.867  -3.309  -9.887  1.00  0.00     0.210 C 
ENDBRANCH  29  33
ENDBRANCH  24  25
ENDBRANCH  22  24
ENDBRANCH  19  20
ENDBRANCH  18  19
ENDBRANCH   1  18
TORSDOF 18
ENDMDL
MODEL 4
REMARK VINA RESULT:      -7.8     12.972     16.900
REMARK  18 active torsions:
REMARK  status: ('A' for Active; 'I' for Inactive)
REMARK    1  A    between atoms: C_2  and  C_3 
REMARK    2  A    between atoms: C_3  and  C_4 
REMARK    3  A    between atoms: C_4  and  C_5 
REMARK    4  A    between atoms: C_5  and  C_6 
REMARK    5  A    between atoms: C_7  and  C_8 
REMARK    6  A    between atoms: C_8  and  C_9 
REMARK    7  A    between atoms: C_10  and  C_11 
REMARK    8  A    between atoms: C_11  and  C_12 
REMARK    9  A    between atoms: C_13  and  C_14 
REMARK   10  A    between atoms: C_14  and  C_15 
REMARK   11  A    between atoms: C_16  and  C_17 
REMARK   12  A    between atoms: C_17  and  C_18 
REMARK   13  A    between atoms: C_18  and  C_19 
REMARK   14  A    between atoms: C_19  and  C_20 
REMARK       I    between atoms: C_20  and  N_22 
REMARK   15  A    between atoms: N_22  and  C_23 
REMARK   16  A    between atoms: C_23  and  C_24 
REMARK   17  A    between atoms: C_27  and  O_28 
REMARK   18  A    between atoms: C_29  and  O_30 
ROOT
HETATM    1  C   UNL     1     -33.589  -3.562 -17.334  1.00  0.00     0.027 C 
ENDROOT
BRANCH   1   2
HETATM    2  C   UNL     1     -34.400  -2.493 -16.661  1.00  0.00    -0.030 C 
HETATM    3  C   UNL     1     -35.423  -1.875 -17.268  1.00  0.00    -0.027 C 
BRANCH   3   4
HETATM    4  C   UNL     1     -36.244  -0.803 -16.614  1.00  0.00     0.053 C 
BRANCH   4   5
HETATM    5  C   UNL     1     -35.731  -0.446 -15.252  1.00  0.00    -0.027 C 
HETATM    6  C   UNL     1     -35.237   0.767 -14.947  1.00  0.00    -0.027 C 
BRANCH   6   7
HETATM    7  C   UNL     1     -34.723   1.110 -13.585  1.00  0.00     0.053 C 
BRANCH   7   8
HETATM    8  C   UNL     1     -34.993   0.031 -12.578  1.00  0.00    -0.027 C 
HETATM    9  C   UNL     1     -36.072   0.020 -11.788  1.00  0.00    -0.027 C 
BRANCH   9  10
HETATM   10  C   UNL     1     -36.329  -1.065 -10.791  1.00  0.00     0.053 C 
BRANCH  10  11
HETATM   11  C   UNL     1     -35.067  -1.811 -10.466  1.00  0.00    -0.027 C 
HETATM   12  C   UNL     1     -34.538  -2.726 -11.263  1.00  0.00    -0.030 C 
BRANCH  12  13
HETATM   13  C   UNL     1     -33.265  -3.455 -10.944  1.00  0.00     0.027 C 
BRANCH  13  14
HETATM   14  C   UNL     1     -33.139  -4.704 -11.801  1.00  0.00     0.004 C 
BRANCH  14  15
HETATM   15  C   UNL     1     -34.329  -5.623 -11.565  1.00  0.00    -0.000 C 
BRANCH  15  16
HETATM   16  C   UNL     1     -34.436  -5.994 -10.092  1.00  0.00    -0.005 C 
HETATM   17  C   UNL     1     -34.852  -7.445  -9.945  1.00  0.00     0.005 C 
ENDBRANCH  15  16
ENDBRANCH  14  15
ENDBRANCH  13  14
ENDBRANCH  12  13
ENDBRANCH  10  11
ENDBRANCH   9  10
ENDBRANCH   7   8
ENDBRANCH   6   7
ENDBRANCH   4   5
ENDBRANCH   3   4
ENDBRANCH   1   2
BRANCH   1  18
HETATM   18  C   UNL     1     -32.662  -4.256 -16.341  1.00  0.00     0.013 C 
BRANCH  18  19
HETATM   19  C   UNL     1     -31.436  -4.858 -17.014  1.00  0.00     0.103 C 
BRANCH  19  20
HETATM   20  C   UNL     1     -30.512  -3.766 -17.559  1.00  0.00     0.217 C 
HETATM   21  O   UNL     1     -30.698  -2.575 -17.362  1.00  0.00    -0.274 OA
HETATM   22  N   UNL     1     -29.427  -4.209 -18.288  1.00  0.00    -0.357 N 
HETATM   23  H   UNL     1     -28.808  -3.505 -18.690  1.00  0.00     0.162 HD
BRANCH  22  24
HETATM   24  C   UNL     1     -29.176  -5.596 -18.537  1.00  0.00     0.161 C 
BRANCH  24  25
HETATM   25  C   UNL     1     -28.063  -6.161 -17.700  1.00  0.00    -0.038 A 
HETATM   26  C   UNL     1     -28.320  -6.453 -16.353  1.00  0.00     0.012 A 
HETATM   27  C   UNL     1     -27.287  -6.827 -15.504  1.00  0.00     0.040 A 
HETATM   28  C   UNL     1     -25.988  -6.929 -16.005  1.00  0.00     0.099 A 
HETATM   29  C   UNL     1     -25.700  -6.648 -17.361  1.00  0.00     0.101 A 
HETATM   30  C   UNL     1     -26.755  -6.274 -18.187  1.00  0.00     0.048 A 
BRANCH  28  31
HETATM   31  O   UNL     1     -24.986  -7.297 -15.142  1.00  0.00    -0.358 OA
HETATM   32  H   UNL     1     -25.005  -6.716 -14.358  1.00  0.00     0.217 HD
ENDBRANCH  28  31
BRANCH  29  33
HETATM   33  O   UNL     1     -24.405  -6.726 -17.802  1.00  0.00    -0.353 OA
HETATM   34  C   UNL     1     -24.167  -7.006 -19.190  1.00  0.00     0.210 C 
ENDBRANCH  29  33
ENDBRANCH  24  25
ENDBRANCH  22  24
ENDBRANCH  19  20
ENDBRANCH  18  19
ENDBRANCH   1  18
TORSDOF 18
ENDMDL
MODEL 5
REMARK VINA RESULT:      -7.8      1.698      2.367
REMARK  18 active torsions:
REMARK  status: ('A' for Active; 'I' for Inactive)
REMARK    1  A    between atoms: C_2  and  C_3 
REMARK    2  A    between atoms: C_3  and  C_4 
REMARK    3  A    between atoms: C_4  and  C_5 
REMARK    4  A    between atoms: C_5  and  C_6 
REMARK    5  A    between atoms: C_7  and  C_8 
REMARK    6  A    between atoms: C_8  and  C_9 
REMARK    7  A    between atoms: C_10  and  C_11 
REMARK    8  A    between atoms: C_11  and  C_12 
REMARK    9  A    between atoms: C_13  and  C_14 
REMARK   10  A    between atoms: C_14  and  C_15 
REMARK   11  A    between atoms: C_16  and  C_17 
REMARK   12  A    between atoms: C_17  and  C_18 
REMARK   13  A    between atoms: C_18  and  C_19 
REMARK   14  A    between atoms: C_19  and  C_20 
REMARK       I    between atoms: C_20  and  N_22 
REMARK   15  A    between atoms: N_22  and  C_23 
REMARK   16  A    between atoms: C_23  and  C_24 
REMARK   17  A    between atoms: C_27  and  O_28 
REMARK   18  A    between atoms: C_29  and  O_30 
ROOT
HETATM    1  C   UNL     1     -21.967  -6.217  -2.272  1.00  0.00     0.027 C 
ENDROOT
BRANCH   1   2
HETATM    2  C   UNL     1     -21.913  -7.333  -1.268  1.00  0.00    -0.030 C 
HETATM    3  C   UNL     1     -22.561  -7.280  -0.096  1.00  0.00    -0.027 C 
BRANCH   3   4
HETATM    4  C   UNL     1     -22.518  -8.382   0.921  1.00  0.00     0.053 C 
BRANCH   4   5
HETATM    5  C   UNL     1     -21.702  -9.550   0.458  1.00  0.00    -0.027 C 
HETATM    6  C   UNL     1     -22.240 -10.734   0.114  1.00  0.00    -0.027 C 
BRANCH   6   7
HETATM    7  C   UNL     1     -21.414 -11.894  -0.343  1.00  0.00     0.053 C 
BRANCH   7   8
HETATM    8  C   UNL     1     -20.015 -11.497  -0.710  1.00  0.00    -0.027 C 
HETATM    9  C   UNL     1     -18.929 -12.114  -0.230  1.00  0.00    -0.027 C 
BRANCH   9  10
HETATM   10  C   UNL     1     -17.540 -11.708  -0.609  1.00  0.00     0.053 C 
BRANCH  10  11
HETATM   11  C   UNL     1     -17.511 -11.081  -1.973  1.00  0.00    -0.027 C 
HETATM   12  C   UNL     1     -16.533 -10.292  -2.388  1.00  0.00    -0.030 C 
BRANCH  12  13
HETATM   13  C   UNL     1     -16.498  -9.683  -3.761  1.00  0.00     0.027 C 
BRANCH  13  14
HETATM   14  C   UNL     1     -15.456 -10.378  -4.622  1.00  0.00     0.004 C 
BRANCH  14  15
HETATM   15  C   UNL     1     -15.946 -10.476  -6.059  1.00  0.00    -0.000 C 
BRANCH  15  16
HETATM   16  C   UNL     1     -15.763 -11.891  -6.593  1.00  0.00    -0.005 C 
HETATM   17  C   UNL     1     -14.338 -12.357  -6.370  1.00  0.00     0.005 C 
ENDBRANCH  15  16
ENDBRANCH  14  15
ENDBRANCH  13  14
ENDBRANCH  12  13
ENDBRANCH  10  11
ENDBRANCH   9  10
ENDBRANCH   7   8
ENDBRANCH   6   7
ENDBRANCH   4   5
ENDBRANCH   3   4
ENDBRANCH   1   2
BRANCH   1  18
HETATM   18  C   UNL     1     -21.067  -6.509  -3.467  1.00  0.00     0.013 C 
BRANCH  18  19
HETATM   19  C   UNL     1     -21.775  -6.283  -4.796  1.00  0.00     0.103 C 
BRANCH  19  20
HETATM   20  C   UNL     1     -21.209  -7.196  -5.887  1.00  0.00     0.217 C 
HETATM   21  O   UNL     1     -21.108  -8.406  -5.757  1.00  0.00    -0.274 OA
HETATM   22  N   UNL     1     -20.823  -6.566  -7.053  1.00  0.00    -0.357 N 
HETATM   23  H   UNL     1     -20.415  -7.143  -7.789  1.00  0.00     0.162 HD
BRANCH  22  24
HETATM   24  C   UNL     1     -20.930  -5.151  -7.241  1.00  0.00     0.161 C 
BRANCH  24  25
HETATM   25  C   UNL     1     -21.188  -4.756  -8.668  1.00  0.00    -0.038 A 
HETATM   26  C   UNL     1     -20.095  -4.646  -9.540  1.00  0.00     0.012 A 
HETATM   27  C   UNL     1     -20.265  -4.134 -10.819  1.00  0.00     0.040 A 
HETATM   28  C   UNL     1     -21.537  -3.745 -11.241  1.00  0.00     0.099 A 
HETATM   29  C   UNL     1     -22.659  -3.852 -10.387  1.00  0.00     0.101 A 
HETATM   30  C   UNL     1     -22.458  -4.366  -9.110  1.00  0.00     0.048 A 
BRANCH  28  31
HETATM   31  O   UNL     1     -21.674  -3.239 -12.510  1.00  0.00    -0.358 OA
HETATM   32  H   UNL     1     -20.830  -3.334 -12.989  1.00  0.00     0.217 HD
ENDBRANCH  28  31
BRANCH  29  33
HETATM   33  O   UNL     1     -23.883  -3.424 -10.829  1.00  0.00    -0.353 OA
HETATM   34  C   UNL     1     -24.929  -3.218  -9.867  1.00  0.00     0.210 C 
ENDBRANCH  29  33
ENDBRANCH  24  25
ENDBRANCH  22  24
ENDBRANCH  19  20
ENDBRANCH  18  19
ENDBRANCH   1  18
TORSDOF 18
ENDMDL
MODEL 6
REMARK VINA RESULT:      -7.6      2.822      4.805
REMARK  18 active torsions:
REMARK  status: ('A' for Active; 'I' for Inactive)
REMARK    1  A    between atoms: C_2  and  C_3 
REMARK    2  A    between atoms: C_3  and  C_4 
REMARK    3  A    between atoms: C_4  and  C_5 
REMARK    4  A    between atoms: C_5  and  C_6 
REMARK    5  A    between atoms: C_7  and  C_8 
REMARK    6  A    between atoms: C_8  and  C_9 
REMARK    7  A    between atoms: C_10  and  C_11 
REMARK    8  A    between atoms: C_11  and  C_12 
REMARK    9  A    between atoms: C_13  and  C_14 
REMARK   10  A    between atoms: C_14  and  C_15 
REMARK   11  A    between atoms: C_16  and  C_17 
REMARK   12  A    between atoms: C_17  and  C_18 
REMARK   13  A    between atoms: C_18  and  C_19 
REMARK   14  A    between atoms: C_19  and  C_20 
REMARK       I    between atoms: C_20  and  N_22 
REMARK   15  A    between atoms: N_22  and  C_23 
REMARK   16  A    between atoms: C_23  and  C_24 
REMARK   17  A    between atoms: C_27  and  O_28 
REMARK   18  A    between atoms: C_29  and  O_30 
ROOT
HETATM    1  C   UNL     1     -21.686  -5.969  -2.383  1.00  0.00     0.027 C 
ENDROOT
BRANCH   1   2
HETATM    2  C   UNL     1     -22.421  -6.563  -1.216  1.00  0.00    -0.030 C 
HETATM    3  C   UNL     1     -21.905  -7.546  -0.465  1.00  0.00    -0.027 C 
BRANCH   3   4
HETATM    4  C   UNL     1     -22.623  -8.155   0.704  1.00  0.00     0.053 C 
BRANCH   4   5
HETATM    5  C   UNL     1     -23.577  -9.232   0.284  1.00  0.00    -0.027 C 
HETATM    6  C   UNL     1     -23.215 -10.281  -0.475  1.00  0.00    -0.027 C 
BRANCH   6   7
HETATM    7  C   UNL     1     -24.177 -11.348  -0.891  1.00  0.00     0.053 C 
BRANCH   7   8
HETATM    8  C   UNL     1     -23.698 -12.725  -0.539  1.00  0.00    -0.027 C 
HETATM    9  C   UNL     1     -23.248 -13.598  -1.446  1.00  0.00    -0.027 C 
BRANCH   9  10
HETATM   10  C   UNL     1     -22.771 -14.967  -1.078  1.00  0.00     0.053 C 
BRANCH  10  11
HETATM   11  C   UNL     1     -22.936 -15.222   0.393  1.00  0.00    -0.027 C 
HETATM   12  C   UNL     1     -22.462 -14.414   1.327  1.00  0.00    -0.030 C 
BRANCH  12  13
HETATM   13  C   UNL     1     -22.647 -14.661   2.797  1.00  0.00     0.027 C 
BRANCH  13  14
HETATM   14  C   UNL     1     -24.126 -14.699   3.146  1.00  0.00     0.004 C 
BRANCH  14  15
HETATM   15  C   UNL     1     -24.323 -15.311   4.525  1.00  0.00    -0.000 C 
BRANCH  15  16
HETATM   16  C   UNL     1     -22.985 -15.484   5.232  1.00  0.00    -0.005 C 
HETATM   17  C   UNL     1     -23.170 -15.398   6.734  1.00  0.00     0.005 C 
ENDBRANCH  15  16
ENDBRANCH  14  15
ENDBRANCH  13  14
ENDBRANCH  12  13
ENDBRANCH  10  11
ENDBRANCH   9  10
ENDBRANCH   7   8
ENDBRANCH   6   7
ENDBRANCH   4   5
ENDBRANCH   3   4
ENDBRANCH   1   2
BRANCH   1  18
HETATM   18  C   UNL     1     -21.416  -7.019  -3.456  1.00  0.00     0.013 C 
BRANCH  18  19
HETATM   19  C   UNL     1     -21.818  -6.545  -4.846  1.00  0.00     0.103 C 
BRANCH  19  20
HETATM   20  C   UNL     1     -21.155  -7.396  -5.933  1.00  0.00     0.217 C 
HETATM   21  O   UNL     1     -21.001  -8.604  -5.832  1.00  0.00    -0.274 OA
HETATM   22  N   UNL     1     -20.745  -6.714  -7.060  1.00  0.00    -0.357 N 
HETATM   23  H   UNL     1     -20.273  -7.247  -7.790  1.00  0.00     0.162 HD
BRANCH  22  24
HETATM   24  C   UNL     1     -20.913  -5.300  -7.213  1.00  0.00     0.161 C 
BRANCH  24  25
HETATM   25  C   UNL     1     -21.189  -4.881  -8.629  1.00  0.00    -0.038 A 
HETATM   26  C   UNL     1     -20.102  -4.694  -9.496  1.00  0.00     0.012 A 
HETATM   27  C   UNL     1     -20.296  -4.158 -10.762  1.00  0.00     0.040 A 
HETATM   28  C   UNL     1     -21.586  -3.821 -11.176  1.00  0.00     0.099 A 
HETATM   29  C   UNL     1     -22.701  -4.006 -10.326  1.00  0.00     0.101 A 
HETATM   30  C   UNL     1     -22.476  -4.543  -9.063  1.00  0.00     0.048 A 
BRANCH  28  31
HETATM   31  O   UNL     1     -21.747  -3.290 -12.431  1.00  0.00    -0.358 OA
HETATM   32  H   UNL     1     -21.652  -2.320 -12.385  1.00  0.00     0.217 HD
ENDBRANCH  28  31
BRANCH  29  33
HETATM   33  O   UNL     1     -23.945  -3.628 -10.760  1.00  0.00    -0.353 OA
HETATM   34  C   UNL     1     -24.916  -3.213  -9.787  1.00  0.00     0.210 C 
ENDBRANCH  29  33
ENDBRANCH  24  25
ENDBRANCH  22  24
ENDBRANCH  19  20
ENDBRANCH  18  19
ENDBRANCH   1  18
TORSDOF 18
ENDMDL
MODEL 7
REMARK VINA RESULT:      -7.4      1.903      4.769
REMARK  18 active torsions:
REMARK  status: ('A' for Active; 'I' for Inactive)
REMARK    1  A    between atoms: C_2  and  C_3 
REMARK    2  A    between atoms: C_3  and  C_4 
REMARK    3  A    between atoms: C_4  and  C_5 
REMARK    4  A    between atoms: C_5  and  C_6 
REMARK    5  A    between atoms: C_7  and  C_8 
REMARK    6  A    between atoms: C_8  and  C_9 
REMARK    7  A    between atoms: C_10  and  C_11 
REMARK    8  A    between atoms: C_11  and  C_12 
REMARK    9  A    between atoms: C_13  and  C_14 
REMARK   10  A    between atoms: C_14  and  C_15 
REMARK   11  A    between atoms: C_16  and  C_17 
REMARK   12  A    between atoms: C_17  and  C_18 
REMARK   13  A    between atoms: C_18  and  C_19 
REMARK   14  A    between atoms: C_19  and  C_20 
REMARK       I    between atoms: C_20  and  N_22 
REMARK   15  A    between atoms: N_22  and  C_23 
REMARK   16  A    between atoms: C_23  and  C_24 
REMARK   17  A    between atoms: C_27  and  O_28 
REMARK   18  A    between atoms: C_29  and  O_30 
ROOT
HETATM    1  C   UNL     1     -19.989  -8.434  -3.645  1.00  0.00     0.027 C 
ENDROOT
BRANCH   1   2
HETATM    2  C   UNL     1     -18.787  -9.281  -3.948  1.00  0.00    -0.030 C 
HETATM    3  C   UNL     1     -17.772  -9.427  -3.084  1.00  0.00    -0.027 C 
BRANCH   3   4
HETATM    4  C   UNL     1     -16.561 -10.267  -3.367  1.00  0.00     0.053 C 
BRANCH   4   5
HETATM    5  C   UNL     1     -16.828 -11.314  -4.406  1.00  0.00    -0.027 C 
HETATM    6  C   UNL     1     -16.346 -11.246  -5.659  1.00  0.00    -0.027 C 
BRANCH   6   7
HETATM    7  C   UNL     1     -16.623 -12.295  -6.689  1.00  0.00     0.053 C 
BRANCH   7   8
HETATM    8  C   UNL     1     -18.054 -12.743  -6.685  1.00  0.00    -0.027 C 
HETATM    9  C   UNL     1     -19.079 -11.923  -6.937  1.00  0.00    -0.027 C 
BRANCH   9  10
HETATM   10  C   UNL     1     -20.501 -12.387  -6.933  1.00  0.00     0.053 C 
BRANCH  10  11
HETATM   11  C   UNL     1     -21.326 -11.597  -5.958  1.00  0.00    -0.027 C 
HETATM   12  C   UNL     1     -21.598 -12.015  -4.732  1.00  0.00    -0.030 C 
BRANCH  12  13
HETATM   13  C   UNL     1     -22.407 -11.213  -3.752  1.00  0.00     0.027 C 
BRANCH  13  14
HETATM   14  C   UNL     1     -21.840 -11.362  -2.350  1.00  0.00     0.004 C 
BRANCH  14  15
HETATM   15  C   UNL     1     -22.679 -12.347  -1.549  1.00  0.00    -0.000 C 
BRANCH  15  16
HETATM   16  C   UNL     1     -24.030 -11.740  -1.196  1.00  0.00    -0.005 C 
HETATM   17  C   UNL     1     -23.855 -10.615  -0.195  1.00  0.00     0.005 C 
ENDBRANCH  15  16
ENDBRANCH  14  15
ENDBRANCH  13  14
ENDBRANCH  12  13
ENDBRANCH  10  11
ENDBRANCH   9  10
ENDBRANCH   7   8
ENDBRANCH   6   7
ENDBRANCH   4   5
ENDBRANCH   3   4
ENDBRANCH   1   2
BRANCH   1  18
HETATM   18  C   UNL     1     -20.784  -8.136  -4.912  1.00  0.00     0.013 C 
BRANCH  18  19
HETATM   19  C   UNL     1     -20.508  -6.740  -5.456  1.00  0.00     0.103 C 
BRANCH  19  20
HETATM   20  C   UNL     1     -21.782  -5.891  -5.472  1.00  0.00     0.217 C 
HETATM   21  O   UNL     1     -22.748  -6.125  -4.762  1.00  0.00    -0.274 OA
HETATM   22  N   UNL     1     -21.775  -4.818  -6.340  1.00  0.00    -0.357 N 
HETATM   23  H   UNL     1     -22.620  -4.250  -6.396  1.00  0.00     0.162 HD
BRANCH  22  24
HETATM   24  C   UNL     1     -20.660  -4.513  -7.184  1.00  0.00     0.161 C 
BRANCH  24  25
HETATM   25  C   UNL     1     -21.020  -4.421  -8.640  1.00  0.00    -0.038 A 
HETATM   26  C   UNL     1     -20.028  -4.690  -9.595  1.00  0.00     0.012 A 
HETATM   27  C   UNL     1     -20.269  -4.467 -10.943  1.00  0.00     0.040 A 
HETATM   28  C   UNL     1     -21.516  -3.987 -11.348  1.00  0.00     0.099 A 
HETATM   29  C   UNL     1     -22.538  -3.714 -10.410  1.00  0.00     0.101 A 
HETATM   30  C   UNL     1     -22.267  -3.945  -9.066  1.00  0.00     0.048 A 
BRANCH  28  31
HETATM   31  O   UNL     1     -21.725  -3.771 -12.688  1.00  0.00    -0.358 OA
HETATM   32  H   UNL     1     -22.498  -3.187 -12.803  1.00  0.00     0.217 HD
ENDBRANCH  28  31
BRANCH  29  33
HETATM   33  O   UNL     1     -23.735  -3.210 -10.848  1.00  0.00    -0.353 OA
HETATM   34  C   UNL     1     -24.908  -3.432 -10.051  1.00  0.00     0.210 C 
ENDBRANCH  29  33
ENDBRANCH  24  25
ENDBRANCH  22  24
ENDBRANCH  19  20
ENDBRANCH  18  19
ENDBRANCH   1  18
TORSDOF 18
ENDMDL
MODEL 8
REMARK VINA RESULT:      -7.2     13.477     16.996
REMARK  18 active torsions:
REMARK  status: ('A' for Active; 'I' for Inactive)
REMARK    1  A    between atoms: C_2  and  C_3 
REMARK    2  A    between atoms: C_3  and  C_4 
REMARK    3  A    between atoms: C_4  and  C_5 
REMARK    4  A    between atoms: C_5  and  C_6 
REMARK    5  A    between atoms: C_7  and  C_8 
REMARK    6  A    between atoms: C_8  and  C_9 
REMARK    7  A    between atoms: C_10  and  C_11 
REMARK    8  A    between atoms: C_11  and  C_12 
REMARK    9  A    between atoms: C_13  and  C_14 
REMARK   10  A    between atoms: C_14  and  C_15 
REMARK   11  A    between atoms: C_16  and  C_17 
REMARK   12  A    between atoms: C_17  and  C_18 
REMARK   13  A    between atoms: C_18  and  C_19 
REMARK   14  A    between atoms: C_19  and  C_20 
REMARK       I    between atoms: C_20  and  N_22 
REMARK   15  A    between atoms: N_22  and  C_23 
REMARK   16  A    between atoms: C_23  and  C_24 
REMARK   17  A    between atoms: C_27  and  O_28 
REMARK   18  A    between atoms: C_29  and  O_30 
ROOT
HETATM    1  C   UNL     1     -35.599  -1.019 -16.616  1.00  0.00     0.027 C 
ENDROOT
BRANCH   1   2
HETATM    2  C   UNL     1     -35.123  -2.387 -16.218  1.00  0.00    -0.030 C 
HETATM    3  C   UNL     1     -34.054  -2.969 -16.779  1.00  0.00    -0.027 C 
BRANCH   3   4
HETATM    4  C   UNL     1     -33.563  -4.335 -16.398  1.00  0.00     0.053 C 
BRANCH   4   5
HETATM    5  C   UNL     1     -32.148  -4.571 -16.831  1.00  0.00    -0.027 C 
HETATM    6  C   UNL     1     -31.400  -3.635 -17.442  1.00  0.00    -0.027 C 
BRANCH   6   7
HETATM    7  C   UNL     1     -29.990  -3.884 -17.875  1.00  0.00     0.053 C 
BRANCH   7   8
HETATM    8  C   UNL     1     -29.349  -5.015 -17.128  1.00  0.00    -0.027 C 
HETATM    9  C   UNL     1     -28.110  -4.955 -16.629  1.00  0.00    -0.027 C 
BRANCH   9  10
HETATM   10  C   UNL     1     -27.486  -6.091 -15.883  1.00  0.00     0.053 C 
BRANCH  10  11
HETATM   11  C   UNL     1     -26.050  -6.279 -16.282  1.00  0.00    -0.027 C 
HETATM   12  C   UNL     1     -25.682  -6.832 -17.427  1.00  0.00    -0.030 C 
BRANCH  12  13
HETATM   13  C   UNL     1     -24.245  -6.999 -17.832  1.00  0.00     0.027 C 
BRANCH  13  14
HETATM   14  C   UNL     1     -24.131  -7.122 -19.342  1.00  0.00     0.004 C 
BRANCH  14  15
HETATM   15  C   UNL     1     -25.514  -7.099 -19.976  1.00  0.00    -0.000 C 
BRANCH  15  16
HETATM   16  C   UNL     1     -25.523  -7.890 -21.277  1.00  0.00    -0.005 C 
HETATM   17  C   UNL     1     -24.125  -7.957 -21.860  1.00  0.00     0.005 C 
ENDBRANCH  15  16
ENDBRANCH  14  15
ENDBRANCH  13  14
ENDBRANCH  12  13
ENDBRANCH  10  11
ENDBRANCH   9  10
ENDBRANCH   7   8
ENDBRANCH   6   7
ENDBRANCH   4   5
ENDBRANCH   3   4
ENDBRANCH   1   2
BRANCH   1  18
HETATM   18  C   UNL     1     -35.575  -0.062 -15.429  1.00  0.00     0.013 C 
BRANCH  18  19
HETATM   19  C   UNL     1     -35.689  -0.788 -14.096  1.00  0.00     0.103 C 
BRANCH  19  20
HETATM   20  C   UNL     1     -35.037   0.019 -12.969  1.00  0.00     0.217 C 
HETATM   21  O   UNL     1     -34.459   1.079 -13.157  1.00  0.00    -0.274 OA
HETATM   22  N   UNL     1     -35.150  -0.520 -11.704  1.00  0.00    -0.357 N 
HETATM   23  H   UNL     1     -34.700  -0.022 -10.936  1.00  0.00     0.162 HD
BRANCH  22  24
HETATM   24  C   UNL     1     -35.821  -1.758 -11.447  1.00  0.00     0.161 C 
BRANCH  24  25
HETATM   25  C   UNL     1     -34.890  -2.932 -11.341  1.00  0.00    -0.038 A 
HETATM   26  C   UNL     1     -33.521  -2.724 -11.562  1.00  0.00     0.012 A 
HETATM   27  C   UNL     1     -32.646  -3.799 -11.629  1.00  0.00     0.040 A 
HETATM   28  C   UNL     1     -33.136  -5.095 -11.457  1.00  0.00     0.099 A 
HETATM   29  C   UNL     1     -34.510  -5.336 -11.225  1.00  0.00     0.101 A 
HETATM   30  C   UNL     1     -35.362  -4.239 -11.165  1.00  0.00     0.048 A 
BRANCH  28  31
HETATM   31  O   UNL     1     -32.249  -6.140 -11.532  1.00  0.00    -0.358 OA
HETATM   32  H   UNL     1     -32.651  -6.933 -11.130  1.00  0.00     0.217 HD
ENDBRANCH  28  31
BRANCH  29  33
HETATM   33  O   UNL     1     -34.953  -6.627 -11.098  1.00  0.00    -0.353 OA
HETATM   34  C   UNL     1     -34.928  -7.237  -9.799  1.00  0.00     0.210 C 
ENDBRANCH  29  33
ENDBRANCH  24  25
ENDBRANCH  22  24
ENDBRANCH  19  20
ENDBRANCH  18  19
ENDBRANCH   1  18
TORSDOF 18
ENDMDL
MODEL 9
REMARK VINA RESULT:      -7.2      2.202      3.049
REMARK  18 active torsions:
REMARK  status: ('A' for Active; 'I' for Inactive)
REMARK    1  A    between atoms: C_2  and  C_3 
REMARK    2  A    between atoms: C_3  and  C_4 
REMARK    3  A    between atoms: C_4  and  C_5 
REMARK    4  A    between atoms: C_5  and  C_6 
REMARK    5  A    between atoms: C_7  and  C_8 
REMARK    6  A    between atoms: C_8  and  C_9 
REMARK    7  A    between atoms: C_10  and  C_11 
REMARK    8  A    between atoms: C_11  and  C_12 
REMARK    9  A    between atoms: C_13  and  C_14 
REMARK   10  A    between atoms: C_14  and  C_15 
REMARK   11  A    between atoms: C_16  and  C_17 
REMARK   12  A    between atoms: C_17  and  C_18 
REMARK   13  A    between atoms: C_18  and  C_19 
REMARK   14  A    between atoms: C_19  and  C_20 
REMARK       I    between atoms: C_20  and  N_22 
REMARK   15  A    between atoms: N_22  and  C_23 
REMARK   16  A    between atoms: C_23  and  C_24 
REMARK   17  A    between atoms: C_27  and  O_28 
REMARK   18  A    between atoms: C_29  and  O_30 
ROOT
HETATM    1  C   UNL     1     -21.704  -5.987  -2.352  1.00  0.00     0.027 C 
ENDROOT
BRANCH   1   2
HETATM    2  C   UNL     1     -22.351  -6.650  -1.170  1.00  0.00    -0.030 C 
HETATM    3  C   UNL     1     -21.802  -7.698  -0.541  1.00  0.00    -0.027 C 
BRANCH   3   4
HETATM    4  C   UNL     1     -22.433  -8.376   0.639  1.00  0.00     0.053 C 
BRANCH   4   5
HETATM    5  C   UNL     1     -23.442  -9.405   0.230  1.00  0.00    -0.027 C 
HETATM    6  C   UNL     1     -23.138 -10.473  -0.528  1.00  0.00    -0.027 C 
BRANCH   6   7
HETATM    7  C   UNL     1     -24.154 -11.492  -0.935  1.00  0.00     0.053 C 
BRANCH   7   8
HETATM    8  C   UNL     1     -23.680 -12.898  -0.717  1.00  0.00    -0.027 C 
HETATM    9  C   UNL     1     -24.365 -13.973  -1.123  1.00  0.00    -0.027 C 
BRANCH   9  10
HETATM   10  C   UNL     1     -23.875 -15.369  -0.901  1.00  0.00     0.053 C 
BRANCH  10  11
HETATM   11  C   UNL     1     -22.488 -15.373  -0.326  1.00  0.00    -0.027 C 
HETATM   12  C   UNL     1     -21.496 -16.090  -0.829  1.00  0.00    -0.030 C 
BRANCH  12  13
HETATM   13  C   UNL     1     -20.105 -16.075  -0.264  1.00  0.00     0.027 C 
BRANCH  13  14
HETATM   14  C   UNL     1     -19.306 -14.923  -0.851  1.00  0.00     0.004 C 
BRANCH  14  15
HETATM   15  C   UNL     1     -19.188 -13.797   0.165  1.00  0.00    -0.000 C 
BRANCH  15  16
HETATM   16  C   UNL     1     -17.733 -13.578   0.558  1.00  0.00    -0.005 C 
HETATM   17  C   UNL     1     -17.322 -12.146   0.277  1.00  0.00     0.005 C 
ENDBRANCH  15  16
ENDBRANCH  14  15
ENDBRANCH  13  14
ENDBRANCH  12  13
ENDBRANCH  10  11
ENDBRANCH   9  10
ENDBRANCH   7   8
ENDBRANCH   6   7
ENDBRANCH   4   5
ENDBRANCH   3   4
ENDBRANCH   1   2
BRANCH   1  18
HETATM   18  C   UNL     1     -21.247  -7.018  -3.379  1.00  0.00     0.013 C 
BRANCH  18  19
HETATM   19  C   UNL     1     -21.947  -6.851  -4.720  1.00  0.00     0.103 C 
BRANCH  19  20
HETATM   20  C   UNL     1     -21.170  -7.549  -5.840  1.00  0.00     0.217 C 
HETATM   21  O   UNL     1     -20.837  -8.723  -5.789  1.00  0.00    -0.274 OA
HETATM   22  N   UNL     1     -20.871  -6.767  -6.937  1.00  0.00    -0.357 N 
HETATM   23  H   UNL     1     -20.328  -7.194  -7.688  1.00  0.00     0.162 HD
BRANCH  22  24
HETATM   24  C   UNL     1     -21.247  -5.389  -7.031  1.00  0.00     0.161 C 
BRANCH  24  25
HETATM   25  C   UNL     1     -21.375  -4.900  -8.446  1.00  0.00    -0.038 A 
HETATM   26  C   UNL     1     -20.217  -4.812  -9.233  1.00  0.00     0.012 A 
HETATM   27  C   UNL     1     -20.262  -4.221 -10.488  1.00  0.00     0.040 A 
HETATM   28  C   UNL     1     -21.475  -3.730 -10.974  1.00  0.00     0.099 A 
HETATM   29  C   UNL     1     -22.660  -3.812 -10.207  1.00  0.00     0.101 A 
HETATM   30  C   UNL     1     -22.584  -4.407  -8.952  1.00  0.00     0.048 A 
BRANCH  28  31
HETATM   31  O   UNL     1     -21.489  -3.147 -12.217  1.00  0.00    -0.358 OA
HETATM   32  H   UNL     1     -21.482  -2.177 -12.118  1.00  0.00     0.217 HD
ENDBRANCH  28  31
BRANCH  29  33
HETATM   33  O   UNL     1     -23.822  -3.284 -10.708  1.00  0.00    -0.353 OA
HETATM   34  C   UNL     1     -24.976  -3.229  -9.856  1.00  0.00     0.210 C 
ENDBRANCH  29  33
ENDBRANCH  24  25
ENDBRANCH  22  24
ENDBRANCH  19  20
ENDBRANCH  18  19
ENDBRANCH   1  18
TORSDOF 18
ENDMDL
