REMARK  18 active torsions:
REMARK  status: ('A' for Active; 'I' for Inactive)
REMARK    1  A    between atoms: C_2  and  C_3 
REMARK    2  A    between atoms: C_3  and  C_4 
REMARK    3  A    between atoms: C_4  and  C_5 
REMARK    4  A    between atoms: C_5  and  C_6 
REMARK    5  A    between atoms: C_7  and  C_8 
REMARK    6  A    between atoms: C_8  and  C_9 
REMARK    7  A    between atoms: C_10  and  C_11 
REMARK    8  A    between atoms: C_11  and  C_12 
REMARK    9  A    between atoms: C_13  and  C_14 
REMARK   10  A    between atoms: C_14  and  C_15 
REMARK   11  A    between atoms: C_16  and  C_17 
REMARK   12  A    between atoms: C_17  and  C_18 
REMARK   13  A    between atoms: C_18  and  C_19 
REMARK   14  A    between atoms: C_19  and  C_20 
REMARK       I    between atoms: C_20  and  N_22 
REMARK   15  A    between atoms: N_22  and  C_23 
REMARK   16  A    between atoms: C_23  and  C_24 
REMARK   17  A    between atoms: C_27  and  O_28 
REMARK   18  A    between atoms: C_29  and  O_30 
ROOT
HETATM    1  C   UNL     1      16.740 -11.602  -0.620  1.00  0.00     0.027 C 
ENDROOT
BRANCH   1   2
HETATM    2  C   UNL     1      16.184 -10.210  -0.680  1.00  0.00    -0.030 C 
HETATM    3  C   UNL     1      15.419  -9.673   0.283  1.00  0.00    -0.027 C 
BRANCH   3   4
HETATM    4  C   UNL     1      14.906  -8.265   0.253  1.00  0.00     0.053 C 
BRANCH   4   5
HETATM    5  C   UNL     1      13.409  -8.228   0.250  1.00  0.00    -0.027 C 
HETATM    6  C   UNL     1      12.675  -7.711  -0.750  1.00  0.00    -0.027 C 
BRANCH   6   7
HETATM    7  C   UNL     1      11.177  -7.671  -0.747  1.00  0.00     0.053 C 
BRANCH   7   8
HETATM    8  C   UNL     1      10.606  -8.873  -1.434  1.00  0.00    -0.027 C 
HETATM    9  C   UNL     1       9.811  -8.829  -2.514  1.00  0.00    -0.027 C 
BRANCH   9  10
HETATM   10  C   UNL     1       9.231 -10.054  -3.154  1.00  0.00     0.053 C 
BRANCH  10  11
HETATM   11  C   UNL     1       9.665 -10.173  -4.584  1.00  0.00    -0.027 C 
HETATM   12  C   UNL     1       8.815 -10.195  -5.622  1.00  0.00    -0.030 C 
BRANCH  12  13
HETATM   13  C   UNL     1       9.254 -10.329  -7.049  1.00  0.00     0.027 C 
BRANCH  13  14
HETATM   14  C   UNL     1       8.823  -9.116  -7.871  1.00  0.00     0.004 C 
BRANCH  14  15
HETATM   15  C   UNL     1       9.266  -9.264  -9.325  1.00  0.00    -0.000 C 
BRANCH  15  16
HETATM   16  C   UNL     1       8.839  -8.060 -10.161  1.00  0.00    -0.005 C 
HETATM   17  C   UNL     1       9.283  -8.214 -11.606  1.00  0.00     0.005 C 
ENDBRANCH  15  16
ENDBRANCH  14  15
ENDBRANCH  13  14
ENDBRANCH  12  13
ENDBRANCH  10  11
ENDBRANCH   9  10
ENDBRANCH   7   8
ENDBRANCH   6   7
ENDBRANCH   4   5
ENDBRANCH   3   4
ENDBRANCH   1   2
BRANCH   1  18
HETATM   18  C   UNL     1      18.270 -11.609  -0.622  1.00  0.00     0.013 C 
BRANCH  18  19
HETATM   19  C   UNL     1      18.899 -10.879   0.570  1.00  0.00     0.103 C 
BRANCH  19  20
HETATM   20  C   UNL     1      20.413 -10.952   0.514  1.00  0.00     0.217 C 
HETATM   21  O   UNL     1      21.022 -11.581  -0.346  1.00  0.00    -0.274 OA
HETATM   22  N   UNL     1      21.042 -10.265   1.527  1.00  0.00    -0.357 N 
HETATM   23  H   UNL     1      20.496  -9.722   2.184  1.00  0.00     0.162 HD
BRANCH  22  24
HETATM   24  C   UNL     1      22.485 -10.232   1.637  1.00  0.00     0.161 C 
BRANCH  24  25
HETATM   25  C   UNL     1      23.096  -9.067   0.900  1.00  0.00    -0.038 A 
HETATM   26  C   UNL     1      23.414  -9.192  -0.457  1.00  0.00     0.012 A 
HETATM   27  C   UNL     1      23.993  -8.135  -1.152  1.00  0.00     0.040 A 
HETATM   28  C   UNL     1      24.261  -6.925  -0.500  1.00  0.00     0.099 A 
HETATM   29  C   UNL     1      23.950  -6.768   0.857  1.00  0.00     0.101 A 
HETATM   30  C   UNL     1      23.363  -7.846   1.542  1.00  0.00     0.048 A 
BRANCH  28  31
HETATM   31  O   UNL     1      24.829  -5.917  -1.229  1.00  0.00    -0.358 OA
HETATM   32  H   UNL     1      24.930  -6.211  -2.149  1.00  0.00     0.217 HD
ENDBRANCH  28  31
BRANCH  29  33
HETATM   33  O   UNL     1      24.150  -5.665   1.646  1.00  0.00    -0.353 OA
HETATM   34  C   UNL     1      24.752  -4.522   1.044  1.00  0.00     0.210 C 
ENDBRANCH  29  33
ENDBRANCH  24  25
ENDBRANCH  22  24
ENDBRANCH  19  20
ENDBRANCH  18  19
ENDBRANCH   1  18
TORSDOF 18
