MODEL 1
REMARK VINA RESULT:      -8.5      0.000      0.000
REMARK  18 active torsions:
REMARK  status: ('A' for Active; 'I' for Inactive)
REMARK    1  A    between atoms: C_2  and  C_3 
REMARK    2  A    between atoms: C_3  and  C_4 
REMARK    3  A    between atoms: C_4  and  C_5 
REMARK    4  A    between atoms: C_5  and  C_6 
REMARK    5  A    between atoms: C_7  and  C_8 
REMARK    6  A    between atoms: C_8  and  C_9 
REMARK    7  A    between atoms: C_10  and  C_11 
REMARK    8  A    between atoms: C_11  and  C_12 
REMARK    9  A    between atoms: C_13  and  C_14 
REMARK   10  A    between atoms: C_14  and  C_15 
REMARK   11  A    between atoms: C_16  and  C_17 
REMARK   12  A    between atoms: C_17  and  C_18 
REMARK   13  A    between atoms: C_18  and  C_19 
REMARK   14  A    between atoms: C_19  and  C_20 
REMARK       I    between atoms: C_20  and  N_22 
REMARK   15  A    between atoms: N_22  and  C_23 
REMARK   16  A    between atoms: C_23  and  C_24 
REMARK   17  A    between atoms: C_27  and  O_28 
REMARK   18  A    between atoms: C_29  and  O_30 
ROOT
HETATM    1  C   UNL     1     -21.501  -6.206  -2.829  1.00  0.00     0.027 C 
ENDROOT
BRANCH   1   2
HETATM    2  C   UNL     1     -22.387  -6.624  -1.693  1.00  0.00    -0.030 C 
HETATM    3  C   UNL     1     -21.954  -7.311  -0.626  1.00  0.00    -0.027 C 
BRANCH   3   4
HETATM    4  C   UNL     1     -22.824  -7.684   0.537  1.00  0.00     0.053 C 
BRANCH   4   5
HETATM    5  C   UNL     1     -23.521  -8.988   0.302  1.00  0.00    -0.027 C 
HETATM    6  C   UNL     1     -23.039  -9.963  -0.488  1.00  0.00    -0.027 C 
BRANCH   6   7
HETATM    7  C   UNL     1     -23.742 -11.265  -0.724  1.00  0.00     0.053 C 
BRANCH   7   8
HETATM    8  C   UNL     1     -23.257 -11.917  -1.981  1.00  0.00    -0.027 C 
HETATM    9  C   UNL     1     -22.805 -11.257  -3.058  1.00  0.00    -0.027 C 
BRANCH   9  10
HETATM   10  C   UNL     1     -22.359 -11.945  -4.313  1.00  0.00     0.053 C 
BRANCH  10  11
HETATM   11  C   UNL     1     -21.274 -11.169  -4.998  1.00  0.00    -0.027 C 
HETATM   12  C   UNL     1     -19.966 -11.430  -4.854  1.00  0.00    -0.030 C 
BRANCH  12  13
HETATM   13  C   UNL     1     -18.885 -10.642  -5.530  1.00  0.00     0.027 C 
BRANCH  13  14
HETATM   14  C   UNL     1     -18.586  -9.355  -4.764  1.00  0.00     0.004 C 
BRANCH  14  15
HETATM   15  C   UNL     1     -18.139  -9.666  -3.338  1.00  0.00    -0.000 C 
BRANCH  15  16
HETATM   16  C   UNL     1     -16.623  -9.556  -3.194  1.00  0.00    -0.005 C 
HETATM   17  C   UNL     1     -16.085 -10.625  -2.257  1.00  0.00     0.005 C 
ENDBRANCH  15  16
ENDBRANCH  14  15
ENDBRANCH  13  14
ENDBRANCH  12  13
ENDBRANCH  10  11
ENDBRANCH   9  10
ENDBRANCH   7   8
ENDBRANCH   6   7
ENDBRANCH   4   5
ENDBRANCH   3   4
ENDBRANCH   1   2
BRANCH   1  18
HETATM   18  C   UNL     1     -21.337  -7.318  -3.867  1.00  0.00     0.013 C 
BRANCH  18  19
HETATM   19  C   UNL     1     -21.951  -6.992  -5.233  1.00  0.00     0.103 C 
BRANCH  19  20
HETATM   20  C   UNL     1     -20.975  -6.215  -6.096  1.00  0.00     0.217 C 
HETATM   21  O   UNL     1     -19.920  -6.689  -6.506  1.00  0.00    -0.274 OA
HETATM   22  N   UNL     1     -21.370  -4.924  -6.361  1.00  0.00    -0.357 N 
HETATM   23  H   UNL     1     -22.272  -4.596  -6.040  1.00  0.00     0.162 HD
BRANCH  22  24
HETATM   24  C   UNL     1     -20.558  -4.033  -7.162  1.00  0.00     0.161 C 
BRANCH  24  25
HETATM   25  C   UNL     1     -20.953  -4.039  -8.617  1.00  0.00    -0.038 A 
HETATM   26  C   UNL     1     -20.044  -4.489  -9.582  1.00  0.00     0.012 A 
HETATM   27  C   UNL     1     -20.382  -4.488 -10.932  1.00  0.00     0.040 A 
HETATM   28  C   UNL     1     -21.644  -4.041 -11.342  1.00  0.00     0.099 A 
HETATM   29  C   UNL     1     -22.577  -3.589 -10.400  1.00  0.00     0.101 A 
HETATM   30  C   UNL     1     -22.218  -3.600  -9.040  1.00  0.00     0.048 A 
BRANCH  28  31
HETATM   31  O   UNL     1     -21.927  -4.063 -12.680  1.00  0.00    -0.358 OA
HETATM   32  H   UNL     1     -22.886  -4.157 -12.799  1.00  0.00     0.217 HD
ENDBRANCH  28  31
BRANCH  29  33
HETATM   33  O   UNL     1     -23.843  -3.115 -10.626  1.00  0.00    -0.353 OA
HETATM   34  C   UNL     1     -24.858  -3.465  -9.689  1.00  0.00     0.210 C 
ENDBRANCH  29  33
ENDBRANCH  24  25
ENDBRANCH  22  24
ENDBRANCH  19  20
ENDBRANCH  18  19
ENDBRANCH   1  18
TORSDOF 18
ENDMDL
MODEL 2
REMARK VINA RESULT:      -8.3      1.368      2.634
REMARK  18 active torsions:
REMARK  status: ('A' for Active; 'I' for Inactive)
REMARK    1  A    between atoms: C_2  and  C_3 
REMARK    2  A    between atoms: C_3  and  C_4 
REMARK    3  A    between atoms: C_4  and  C_5 
REMARK    4  A    between atoms: C_5  and  C_6 
REMARK    5  A    between atoms: C_7  and  C_8 
REMARK    6  A    between atoms: C_8  and  C_9 
REMARK    7  A    between atoms: C_10  and  C_11 
REMARK    8  A    between atoms: C_11  and  C_12 
REMARK    9  A    between atoms: C_13  and  C_14 
REMARK   10  A    between atoms: C_14  and  C_15 
REMARK   11  A    between atoms: C_16  and  C_17 
REMARK   12  A    between atoms: C_17  and  C_18 
REMARK   13  A    between atoms: C_18  and  C_19 
REMARK   14  A    between atoms: C_19  and  C_20 
REMARK       I    between atoms: C_20  and  N_22 
REMARK   15  A    between atoms: N_22  and  C_23 
REMARK   16  A    between atoms: C_23  and  C_24 
REMARK   17  A    between atoms: C_27  and  O_28 
REMARK   18  A    between atoms: C_29  and  O_30 
ROOT
HETATM    1  C   UNL     1     -21.109  -6.546  -2.997  1.00  0.00     0.027 C 
ENDROOT
BRANCH   1   2
HETATM    2  C   UNL     1     -21.292  -7.435  -1.802  1.00  0.00    -0.030 C 
HETATM    3  C   UNL     1     -22.237  -7.241  -0.869  1.00  0.00    -0.027 C 
BRANCH   3   4
HETATM    4  C   UNL     1     -22.458  -8.156   0.297  1.00  0.00     0.053 C 
BRANCH   4   5
HETATM    5  C   UNL     1     -21.991  -9.546  -0.002  1.00  0.00    -0.027 C 
HETATM    6  C   UNL     1     -21.026 -10.177   0.689  1.00  0.00    -0.027 C 
BRANCH   6   7
HETATM    7  C   UNL     1     -20.557 -11.567   0.383  1.00  0.00     0.053 C 
BRANCH   7   8
HETATM    8  C   UNL     1     -19.217 -11.547  -0.286  1.00  0.00    -0.027 C 
HETATM    9  C   UNL     1     -18.079 -11.989   0.272  1.00  0.00    -0.027 C 
BRANCH   9  10
HETATM   10  C   UNL     1     -16.750 -11.921  -0.418  1.00  0.00     0.053 C 
BRANCH  10  11
HETATM   11  C   UNL     1     -16.871 -11.264  -1.760  1.00  0.00    -0.027 C 
HETATM   12  C   UNL     1     -15.945 -10.439  -2.273  1.00  0.00    -0.030 C 
BRANCH  12  13
HETATM   13  C   UNL     1     -16.078  -9.774  -3.609  1.00  0.00     0.027 C 
BRANCH  13  14
HETATM   14  C   UNL     1     -17.179 -10.429  -4.440  1.00  0.00     0.004 C 
BRANCH  14  15
HETATM   15  C   UNL     1     -18.320  -9.447  -4.696  1.00  0.00    -0.000 C 
BRANCH  15  16
HETATM   16  C   UNL     1     -19.547  -9.789  -3.855  1.00  0.00    -0.005 C 
HETATM   17  C   UNL     1     -19.887 -11.266  -3.963  1.00  0.00     0.005 C 
ENDBRANCH  15  16
ENDBRANCH  14  15
ENDBRANCH  13  14
ENDBRANCH  12  13
ENDBRANCH  10  11
ENDBRANCH   9  10
ENDBRANCH   7   8
ENDBRANCH   6   7
ENDBRANCH   4   5
ENDBRANCH   3   4
ENDBRANCH   1   2
BRANCH   1  18
HETATM   18  C   UNL     1     -22.265  -6.676  -3.991  1.00  0.00     0.013 C 
BRANCH  18  19
HETATM   19  C   UNL     1     -21.867  -7.300  -5.333  1.00  0.00     0.103 C 
BRANCH  19  20
HETATM   20  C   UNL     1     -20.929  -6.387  -6.099  1.00  0.00     0.217 C 
HETATM   21  O   UNL     1     -19.797  -6.720  -6.437  1.00  0.00    -0.274 OA
HETATM   22  N   UNL     1     -21.455  -5.143  -6.363  1.00  0.00    -0.357 N 
HETATM   23  H   UNL     1     -22.411  -4.934  -6.105  1.00  0.00     0.162 HD
BRANCH  22  24
HETATM   24  C   UNL     1     -20.697  -4.137  -7.078  1.00  0.00     0.161 C 
BRANCH  24  25
HETATM   25  C   UNL     1     -21.027  -4.101  -8.549  1.00  0.00    -0.038 A 
HETATM   26  C   UNL     1     -20.057  -4.470  -9.488  1.00  0.00     0.012 A 
HETATM   27  C   UNL     1     -20.335  -4.428 -10.851  1.00  0.00     0.040 A 
HETATM   28  C   UNL     1     -21.596  -4.019 -11.301  1.00  0.00     0.099 A 
HETATM   29  C   UNL     1     -22.588  -3.647 -10.385  1.00  0.00     0.101 A 
HETATM   30  C   UNL     1     -22.290  -3.698  -9.012  1.00  0.00     0.048 A 
BRANCH  28  31
HETATM   31  O   UNL     1     -21.818  -3.997 -12.650  1.00  0.00    -0.358 OA
HETATM   32  H   UNL     1     -22.745  -4.230 -12.822  1.00  0.00     0.217 HD
ENDBRANCH  28  31
BRANCH  29  33
HETATM   33  O   UNL     1     -23.863  -3.217 -10.650  1.00  0.00    -0.353 OA
HETATM   34  C   UNL     1     -24.834  -3.351  -9.616  1.00  0.00     0.210 C 
ENDBRANCH  29  33
ENDBRANCH  24  25
ENDBRANCH  22  24
ENDBRANCH  19  20
ENDBRANCH  18  19
ENDBRANCH   1  18
TORSDOF 18
ENDMDL
MODEL 3
REMARK VINA RESULT:      -7.9      1.556      3.701
REMARK  18 active torsions:
REMARK  status: ('A' for Active; 'I' for Inactive)
REMARK    1  A    between atoms: C_2  and  C_3 
REMARK    2  A    between atoms: C_3  and  C_4 
REMARK    3  A    between atoms: C_4  and  C_5 
REMARK    4  A    between atoms: C_5  and  C_6 
REMARK    5  A    between atoms: C_7  and  C_8 
REMARK    6  A    between atoms: C_8  and  C_9 
REMARK    7  A    between atoms: C_10  and  C_11 
REMARK    8  A    between atoms: C_11  and  C_12 
REMARK    9  A    between atoms: C_13  and  C_14 
REMARK   10  A    between atoms: C_14  and  C_15 
REMARK   11  A    between atoms: C_16  and  C_17 
REMARK   12  A    between atoms: C_17  and  C_18 
REMARK   13  A    between atoms: C_18  and  C_19 
REMARK   14  A    between atoms: C_19  and  C_20 
REMARK       I    between atoms: C_20  and  N_22 
REMARK   15  A    between atoms: N_22  and  C_23 
REMARK   16  A    between atoms: C_23  and  C_24 
REMARK   17  A    between atoms: C_27  and  O_28 
REMARK   18  A    between atoms: C_29  and  O_30 
ROOT
HETATM    1  C   UNL     1     -21.595  -8.935  -3.572  1.00  0.00     0.027 C 
ENDROOT
BRANCH   1   2
HETATM    2  C   UNL     1     -20.525  -9.883  -3.118  1.00  0.00    -0.030 C 
HETATM    3  C   UNL     1     -19.257  -9.514  -2.879  1.00  0.00    -0.027 C 
BRANCH   3   4
HETATM    4  C   UNL     1     -18.198 -10.446  -2.374  1.00  0.00     0.053 C 
BRANCH   4   5
HETATM    5  C   UNL     1     -18.757 -11.429  -1.392  1.00  0.00    -0.027 C 
HETATM    6  C   UNL     1     -19.569 -12.445  -1.730  1.00  0.00    -0.027 C 
BRANCH   6   7
HETATM    7  C   UNL     1     -20.131 -13.423  -0.744  1.00  0.00     0.053 C 
BRANCH   7   8
HETATM    8  C   UNL     1     -21.547 -13.082  -0.396  1.00  0.00    -0.027 C 
HETATM    9  C   UNL     1     -22.526 -12.881  -1.292  1.00  0.00    -0.027 C 
BRANCH   9  10
HETATM   10  C   UNL     1     -23.925 -12.507  -0.905  1.00  0.00     0.053 C 
BRANCH  10  11
HETATM   11  C   UNL     1     -23.942 -11.255  -0.081  1.00  0.00    -0.027 C 
HETATM   12  C   UNL     1     -23.501 -10.067  -0.522  1.00  0.00    -0.030 C 
BRANCH  12  13
HETATM   13  C   UNL     1     -23.507  -8.821   0.312  1.00  0.00     0.027 C 
BRANCH  13  14
HETATM   14  C   UNL     1     -22.508  -7.798  -0.225  1.00  0.00     0.004 C 
BRANCH  14  15
HETATM   15  C   UNL     1     -21.078  -8.210   0.114  1.00  0.00    -0.000 C 
BRANCH  15  16
HETATM   16  C   UNL     1     -20.963  -8.675   1.564  1.00  0.00    -0.005 C 
HETATM   17  C   UNL     1     -20.359 -10.067   1.644  1.00  0.00     0.005 C 
ENDBRANCH  15  16
ENDBRANCH  14  15
ENDBRANCH  13  14
ENDBRANCH  12  13
ENDBRANCH  10  11
ENDBRANCH   9  10
ENDBRANCH   7   8
ENDBRANCH   6   7
ENDBRANCH   4   5
ENDBRANCH   3   4
ENDBRANCH   1   2
BRANCH   1  18
HETATM   18  C   UNL     1     -21.013  -7.709  -4.279  1.00  0.00     0.013 C 
BRANCH  18  19
HETATM   19  C   UNL     1     -21.584  -7.467  -5.681  1.00  0.00     0.103 C 
BRANCH  19  20
HETATM   20  C   UNL     1     -20.796  -6.396  -6.411  1.00  0.00     0.217 C 
HETATM   21  O   UNL     1     -19.647  -6.564  -6.809  1.00  0.00    -0.274 OA
HETATM   22  N   UNL     1     -21.478  -5.212  -6.569  1.00  0.00    -0.357 N 
HETATM   23  H   UNL     1     -22.441  -5.139  -6.265  1.00  0.00     0.162 HD
BRANCH  22  24
HETATM   24  C   UNL     1     -20.878  -4.075  -7.235  1.00  0.00     0.161 C 
BRANCH  24  25
HETATM   25  C   UNL     1     -21.185  -4.040  -8.711  1.00  0.00    -0.038 A 
HETATM   26  C   UNL     1     -20.140  -4.106  -9.640  1.00  0.00     0.012 A 
HETATM   27  C   UNL     1     -20.400  -4.059 -11.006  1.00  0.00     0.040 A 
HETATM   28  C   UNL     1     -21.717  -3.950 -11.470  1.00  0.00     0.099 A 
HETATM   29  C   UNL     1     -22.784  -3.887 -10.565  1.00  0.00     0.101 A 
HETATM   30  C   UNL     1     -22.502  -3.939  -9.188  1.00  0.00     0.048 A 
BRANCH  28  31
HETATM   31  O   UNL     1     -21.917  -3.910 -12.822  1.00  0.00    -0.358 OA
HETATM   32  H   UNL     1     -22.331  -3.063 -13.055  1.00  0.00     0.217 HD
ENDBRANCH  28  31
BRANCH  29  33
HETATM   33  O   UNL     1     -24.121  -3.773 -10.843  1.00  0.00    -0.353 OA
HETATM   34  C   UNL     1     -24.965  -3.237  -9.828  1.00  0.00     0.210 C 
ENDBRANCH  29  33
ENDBRANCH  24  25
ENDBRANCH  22  24
ENDBRANCH  19  20
ENDBRANCH  18  19
ENDBRANCH   1  18
TORSDOF 18
ENDMDL
MODEL 4
REMARK VINA RESULT:      -7.8      1.672      4.934
REMARK  18 active torsions:
REMARK  status: ('A' for Active; 'I' for Inactive)
REMARK    1  A    between atoms: C_2  and  C_3 
REMARK    2  A    between atoms: C_3  and  C_4 
REMARK    3  A    between atoms: C_4  and  C_5 
REMARK    4  A    between atoms: C_5  and  C_6 
REMARK    5  A    between atoms: C_7  and  C_8 
REMARK    6  A    between atoms: C_8  and  C_9 
REMARK    7  A    between atoms: C_10  and  C_11 
REMARK    8  A    between atoms: C_11  and  C_12 
REMARK    9  A    between atoms: C_13  and  C_14 
REMARK   10  A    between atoms: C_14  and  C_15 
REMARK   11  A    between atoms: C_16  and  C_17 
REMARK   12  A    between atoms: C_17  and  C_18 
REMARK   13  A    between atoms: C_18  and  C_19 
REMARK   14  A    between atoms: C_19  and  C_20 
REMARK       I    between atoms: C_20  and  N_22 
REMARK   15  A    between atoms: N_22  and  C_23 
REMARK   16  A    between atoms: C_23  and  C_24 
REMARK   17  A    between atoms: C_27  and  O_28 
REMARK   18  A    between atoms: C_29  and  O_30 
ROOT
HETATM    1  C   UNL     1     -20.079  -8.696  -3.904  1.00  0.00     0.027 C 
ENDROOT
BRANCH   1   2
HETATM    2  C   UNL     1     -18.798  -9.403  -4.237  1.00  0.00    -0.030 C 
HETATM    3  C   UNL     1     -18.176  -9.296  -5.422  1.00  0.00    -0.027 C 
BRANCH   3   4
HETATM    4  C   UNL     1     -16.869  -9.956  -5.741  1.00  0.00     0.053 C 
BRANCH   4   5
HETATM    5  C   UNL     1     -16.053 -10.178  -4.505  1.00  0.00    -0.027 C 
HETATM    6  C   UNL     1     -15.948 -11.363  -3.880  1.00  0.00    -0.027 C 
BRANCH   6   7
HETATM    7  C   UNL     1     -15.134 -11.581  -2.641  1.00  0.00     0.053 C 
BRANCH   7   8
HETATM    8  C   UNL     1     -16.005 -11.607  -1.423  1.00  0.00    -0.027 C 
HETATM    9  C   UNL     1     -16.854 -12.599  -1.114  1.00  0.00    -0.027 C 
BRANCH   9  10
HETATM   10  C   UNL     1     -17.736 -12.574   0.098  1.00  0.00     0.053 C 
BRANCH  10  11
HETATM   11  C   UNL     1     -19.101 -12.053  -0.238  1.00  0.00    -0.027 C 
HETATM   12  C   UNL     1     -19.804 -11.235   0.560  1.00  0.00    -0.030 C 
BRANCH  12  13
HETATM   13  C   UNL     1     -21.175 -10.729   0.225  1.00  0.00     0.027 C 
BRANCH  13  14
HETATM   14  C   UNL     1     -21.101  -9.398  -0.521  1.00  0.00     0.004 C 
BRANCH  14  15
HETATM   15  C   UNL     1     -21.576  -8.253   0.370  1.00  0.00    -0.000 C 
BRANCH  15  16
HETATM   16  C   UNL     1     -22.714  -7.475  -0.285  1.00  0.00    -0.005 C 
HETATM   17  C   UNL     1     -22.192  -6.566  -1.385  1.00  0.00     0.005 C 
ENDBRANCH  15  16
ENDBRANCH  14  15
ENDBRANCH  13  14
ENDBRANCH  12  13
ENDBRANCH  10  11
ENDBRANCH   9  10
ENDBRANCH   7   8
ENDBRANCH   6   7
ENDBRANCH   4   5
ENDBRANCH   3   4
ENDBRANCH   1   2
BRANCH   1  18
HETATM   18  C   UNL     1     -20.950  -8.474  -5.142  1.00  0.00     0.013 C 
BRANCH  18  19
HETATM   19  C   UNL     1     -21.961  -7.331  -4.997  1.00  0.00     0.103 C 
BRANCH  19  20
HETATM   20  C   UNL     1     -21.329  -5.999  -5.352  1.00  0.00     0.217 C 
HETATM   21  O   UNL     1     -20.726  -5.305  -4.540  1.00  0.00    -0.274 OA
HETATM   22  N   UNL     1     -21.512  -5.628  -6.665  1.00  0.00    -0.357 N 
HETATM   23  H   UNL     1     -21.976  -6.257  -7.308  1.00  0.00     0.162 HD
BRANCH  22  24
HETATM   24  C   UNL     1     -20.985  -4.382  -7.180  1.00  0.00     0.161 C 
BRANCH  24  25
HETATM   25  C   UNL     1     -21.224  -4.219  -8.660  1.00  0.00    -0.038 A 
HETATM   26  C   UNL     1     -20.179  -4.449  -9.562  1.00  0.00     0.012 A 
HETATM   27  C   UNL     1     -20.374  -4.289 -10.931  1.00  0.00     0.040 A 
HETATM   28  C   UNL     1     -21.625  -3.900 -11.425  1.00  0.00     0.099 A 
HETATM   29  C   UNL     1     -22.691  -3.666 -10.546  1.00  0.00     0.101 A 
HETATM   30  C   UNL     1     -22.477  -3.835  -9.168  1.00  0.00     0.048 A 
BRANCH  28  31
HETATM   31  O   UNL     1     -21.763  -3.759 -12.778  1.00  0.00    -0.358 OA
HETATM   32  H   UNL     1     -22.351  -3.007 -12.958  1.00  0.00     0.217 HD
ENDBRANCH  28  31
BRANCH  29  33
HETATM   33  O   UNL     1     -23.968  -3.275 -10.856  1.00  0.00    -0.353 OA
HETATM   34  C   UNL     1     -24.934  -3.286  -9.808  1.00  0.00     0.210 C 
ENDBRANCH  29  33
ENDBRANCH  24  25
ENDBRANCH  22  24
ENDBRANCH  19  20
ENDBRANCH  18  19
ENDBRANCH   1  18
TORSDOF 18
ENDMDL
MODEL 5
REMARK VINA RESULT:      -7.6      1.503      4.872
REMARK  18 active torsions:
REMARK  status: ('A' for Active; 'I' for Inactive)
REMARK    1  A    between atoms: C_2  and  C_3 
REMARK    2  A    between atoms: C_3  and  C_4 
REMARK    3  A    between atoms: C_4  and  C_5 
REMARK    4  A    between atoms: C_5  and  C_6 
REMARK    5  A    between atoms: C_7  and  C_8 
REMARK    6  A    between atoms: C_8  and  C_9 
REMARK    7  A    between atoms: C_10  and  C_11 
REMARK    8  A    between atoms: C_11  and  C_12 
REMARK    9  A    between atoms: C_13  and  C_14 
REMARK   10  A    between atoms: C_14  and  C_15 
REMARK   11  A    between atoms: C_16  and  C_17 
REMARK   12  A    between atoms: C_17  and  C_18 
REMARK   13  A    between atoms: C_18  and  C_19 
REMARK   14  A    between atoms: C_19  and  C_20 
REMARK       I    between atoms: C_20  and  N_22 
REMARK   15  A    between atoms: N_22  and  C_23 
REMARK   16  A    between atoms: C_23  and  C_24 
REMARK   17  A    between atoms: C_27  and  O_28 
REMARK   18  A    between atoms: C_29  and  O_30 
ROOT
HETATM    1  C   UNL     1     -21.778  -9.836  -4.319  1.00  0.00     0.027 C 
ENDROOT
BRANCH   1   2
HETATM    2  C   UNL     1     -20.855 -10.390  -5.364  1.00  0.00    -0.030 C 
HETATM    3  C   UNL     1     -21.010 -11.598  -5.928  1.00  0.00    -0.027 C 
BRANCH   3   4
HETATM    4  C   UNL     1     -20.123 -12.134  -7.011  1.00  0.00     0.053 C 
BRANCH   4   5
HETATM    5  C   UNL     1     -18.724 -11.615  -6.879  1.00  0.00    -0.027 C 
HETATM    6  C   UNL     1     -17.652 -12.399  -6.674  1.00  0.00    -0.027 C 
BRANCH   6   7
HETATM    7  C   UNL     1     -16.254 -11.876  -6.537  1.00  0.00     0.053 C 
BRANCH   7   8
HETATM    8  C   UNL     1     -16.018 -11.326  -5.164  1.00  0.00    -0.027 C 
HETATM    9  C   UNL     1     -16.336 -10.082  -4.775  1.00  0.00    -0.027 C 
BRANCH   9  10
HETATM   10  C   UNL     1     -16.053  -9.557  -3.400  1.00  0.00     0.053 C 
BRANCH  10  11
HETATM   11  C   UNL     1     -17.121  -9.972  -2.433  1.00  0.00    -0.027 C 
HETATM   12  C   UNL     1     -18.302 -10.490  -2.804  1.00  0.00    -0.030 C 
BRANCH  12  13
HETATM   13  C   UNL     1     -19.373 -10.889  -1.834  1.00  0.00     0.027 C 
BRANCH  13  14
HETATM   14  C   UNL     1     -20.077  -9.661  -1.260  1.00  0.00     0.004 C 
BRANCH  14  15
HETATM   15  C   UNL     1     -21.263 -10.076  -0.391  1.00  0.00    -0.000 C 
BRANCH  15  16
HETATM   16  C   UNL     1     -22.442  -9.122  -0.568  1.00  0.00    -0.005 C 
HETATM   17  C   UNL     1     -21.996  -7.675  -0.441  1.00  0.00     0.005 C 
ENDBRANCH  15  16
ENDBRANCH  14  15
ENDBRANCH  13  14
ENDBRANCH  12  13
ENDBRANCH  10  11
ENDBRANCH   9  10
ENDBRANCH   7   8
ENDBRANCH   6   7
ENDBRANCH   4   5
ENDBRANCH   3   4
ENDBRANCH   1   2
BRANCH   1  18
HETATM   18  C   UNL     1     -21.770  -8.306  -4.300  1.00  0.00     0.013 C 
BRANCH  18  19
HETATM   19  C   UNL     1     -20.964  -7.672  -5.439  1.00  0.00     0.103 C 
BRANCH  19  20
HETATM   20  C   UNL     1     -21.492  -6.290  -5.774  1.00  0.00     0.217 C 
HETATM   21  O   UNL     1     -22.556  -5.857  -5.342  1.00  0.00    -0.274 OA
HETATM   22  N   UNL     1     -20.680  -5.574  -6.623  1.00  0.00    -0.357 N 
HETATM   23  H   UNL     1     -19.789  -5.957  -6.913  1.00  0.00     0.162 HD
BRANCH  22  24
HETATM   24  C   UNL     1     -21.030  -4.238  -7.058  1.00  0.00     0.161 C 
BRANCH  24  25
HETATM   25  C   UNL     1     -21.260  -4.155  -8.546  1.00  0.00    -0.038 A 
HETATM   26  C   UNL     1     -20.213  -4.444  -9.428  1.00  0.00     0.012 A 
HETATM   27  C   UNL     1     -20.399  -4.357 -10.804  1.00  0.00     0.040 A 
HETATM   28  C   UNL     1     -21.644  -3.984 -11.326  1.00  0.00     0.099 A 
HETATM   29  C   UNL     1     -22.712  -3.692 -10.468  1.00  0.00     0.101 A 
HETATM   30  C   UNL     1     -22.506  -3.788  -9.080  1.00  0.00     0.048 A 
BRANCH  28  31
HETATM   31  O   UNL     1     -21.774  -3.916 -12.685  1.00  0.00    -0.358 OA
HETATM   32  H   UNL     1     -22.322  -4.659 -12.987  1.00  0.00     0.217 HD
ENDBRANCH  28  31
BRANCH  29  33
HETATM   33  O   UNL     1     -23.984  -3.307 -10.805  1.00  0.00    -0.353 OA
HETATM   34  C   UNL     1     -24.951  -3.234  -9.760  1.00  0.00     0.210 C 
ENDBRANCH  29  33
ENDBRANCH  24  25
ENDBRANCH  22  24
ENDBRANCH  19  20
ENDBRANCH  18  19
ENDBRANCH   1  18
TORSDOF 18
ENDMDL
MODEL 6
REMARK VINA RESULT:      -7.5      1.827      3.867
REMARK  18 active torsions:
REMARK  status: ('A' for Active; 'I' for Inactive)
REMARK    1  A    between atoms: C_2  and  C_3 
REMARK    2  A    between atoms: C_3  and  C_4 
REMARK    3  A    between atoms: C_4  and  C_5 
REMARK    4  A    between atoms: C_5  and  C_6 
REMARK    5  A    between atoms: C_7  and  C_8 
REMARK    6  A    between atoms: C_8  and  C_9 
REMARK    7  A    between atoms: C_10  and  C_11 
REMARK    8  A    between atoms: C_11  and  C_12 
REMARK    9  A    between atoms: C_13  and  C_14 
REMARK   10  A    between atoms: C_14  and  C_15 
REMARK   11  A    between atoms: C_16  and  C_17 
REMARK   12  A    between atoms: C_17  and  C_18 
REMARK   13  A    between atoms: C_18  and  C_19 
REMARK   14  A    between atoms: C_19  and  C_20 
REMARK       I    between atoms: C_20  and  N_22 
REMARK   15  A    between atoms: N_22  and  C_23 
REMARK   16  A    between atoms: C_23  and  C_24 
REMARK   17  A    between atoms: C_27  and  O_28 
REMARK   18  A    between atoms: C_29  and  O_30 
ROOT
HETATM    1  C   UNL     1     -21.465  -7.479  -3.009  1.00  0.00     0.027 C 
ENDROOT
BRANCH   1   2
HETATM    2  C   UNL     1     -20.370  -8.477  -3.245  1.00  0.00    -0.030 C 
HETATM    3  C   UNL     1     -19.775  -9.173  -2.265  1.00  0.00    -0.027 C 
BRANCH   3   4
HETATM    4  C   UNL     1     -18.719 -10.211  -2.501  1.00  0.00     0.053 C 
BRANCH   4   5
HETATM    5  C   UNL     1     -18.822 -11.331  -1.513  1.00  0.00    -0.027 C 
HETATM    6  C   UNL     1     -19.003 -12.618  -1.857  1.00  0.00    -0.027 C 
BRANCH   6   7
HETATM    7  C   UNL     1     -19.111 -13.736  -0.866  1.00  0.00     0.053 C 
BRANCH   7   8
HETATM    8  C   UNL     1     -20.508 -13.854  -0.339  1.00  0.00    -0.027 C 
HETATM    9  C   UNL     1     -20.843 -13.786   0.958  1.00  0.00    -0.027 C 
BRANCH   9  10
HETATM   10  C   UNL     1     -22.251 -13.943   1.449  1.00  0.00     0.053 C 
BRANCH  10  11
HETATM   11  C   UNL     1     -23.181 -13.017   0.725  1.00  0.00    -0.027 C 
HETATM   12  C   UNL     1     -22.873 -11.753   0.401  1.00  0.00    -0.030 C 
BRANCH  12  13
HETATM   13  C   UNL     1     -23.813 -10.827  -0.311  1.00  0.00     0.027 C 
BRANCH  13  14
HETATM   14  C   UNL     1     -23.233 -10.382  -1.652  1.00  0.00     0.004 C 
BRANCH  14  15
HETATM   15  C   UNL     1     -22.652 -11.572  -2.411  1.00  0.00    -0.000 C 
BRANCH  15  16
HETATM   16  C   UNL     1     -22.693 -11.342  -3.920  1.00  0.00    -0.005 C 
HETATM   17  C   UNL     1     -21.381 -11.751  -4.570  1.00  0.00     0.005 C 
ENDBRANCH  15  16
ENDBRANCH  14  15
ENDBRANCH  13  14
ENDBRANCH  12  13
ENDBRANCH  10  11
ENDBRANCH   9  10
ENDBRANCH   7   8
ENDBRANCH   6   7
ENDBRANCH   4   5
ENDBRANCH   3   4
ENDBRANCH   1   2
BRANCH   1  18
HETATM   18  C   UNL     1     -22.010  -6.905  -4.318  1.00  0.00     0.013 C 
BRANCH  18  19
HETATM   19  C   UNL     1     -21.369  -7.502  -5.576  1.00  0.00     0.103 C 
BRANCH  19  20
HETATM   20  C   UNL     1     -20.606  -6.445  -6.351  1.00  0.00     0.217 C 
HETATM   21  O   UNL     1     -19.502  -6.645  -6.848  1.00  0.00    -0.274 OA
HETATM   22  N   UNL     1     -21.254  -5.233  -6.427  1.00  0.00    -0.357 N 
HETATM   23  H   UNL     1     -22.184  -5.133  -6.041  1.00  0.00     0.162 HD
BRANCH  22  24
HETATM   24  C   UNL     1     -20.670  -4.105  -7.121  1.00  0.00     0.161 C 
BRANCH  24  25
HETATM   25  C   UNL     1     -21.021  -4.080  -8.587  1.00  0.00    -0.038 A 
HETATM   26  C   UNL     1     -20.083  -4.505  -9.534  1.00  0.00     0.012 A 
HETATM   27  C   UNL     1     -20.381  -4.475 -10.893  1.00  0.00     0.040 A 
HETATM   28  C   UNL     1     -21.632  -4.023 -11.331  1.00  0.00     0.099 A 
HETATM   29  C   UNL     1     -22.593  -3.595 -10.406  1.00  0.00     0.101 A 
HETATM   30  C   UNL     1     -22.275  -3.634  -9.038  1.00  0.00     0.048 A 
BRANCH  28  31
HETATM   31  O   UNL     1     -21.874  -4.016 -12.677  1.00  0.00    -0.358 OA
HETATM   32  H   UNL     1     -21.135  -3.578 -13.129  1.00  0.00     0.217 HD
ENDBRANCH  28  31
BRANCH  29  33
HETATM   33  O   UNL     1     -23.853  -3.118 -10.659  1.00  0.00    -0.353 OA
HETATM   34  C   UNL     1     -24.879  -3.430  -9.720  1.00  0.00     0.210 C 
ENDBRANCH  29  33
ENDBRANCH  24  25
ENDBRANCH  22  24
ENDBRANCH  19  20
ENDBRANCH  18  19
ENDBRANCH   1  18
TORSDOF 18
ENDMDL
MODEL 7
REMARK VINA RESULT:      -7.2      1.472      4.338
REMARK  18 active torsions:
REMARK  status: ('A' for Active; 'I' for Inactive)
REMARK    1  A    between atoms: C_2  and  C_3 
REMARK    2  A    between atoms: C_3  and  C_4 
REMARK    3  A    between atoms: C_4  and  C_5 
REMARK    4  A    between atoms: C_5  and  C_6 
REMARK    5  A    between atoms: C_7  and  C_8 
REMARK    6  A    between atoms: C_8  and  C_9 
REMARK    7  A    between atoms: C_10  and  C_11 
REMARK    8  A    between atoms: C_11  and  C_12 
REMARK    9  A    between atoms: C_13  and  C_14 
REMARK   10  A    between atoms: C_14  and  C_15 
REMARK   11  A    between atoms: C_16  and  C_17 
REMARK   12  A    between atoms: C_17  and  C_18 
REMARK   13  A    between atoms: C_18  and  C_19 
REMARK   14  A    between atoms: C_19  and  C_20 
REMARK       I    between atoms: C_20  and  N_22 
REMARK   15  A    between atoms: N_22  and  C_23 
REMARK   16  A    between atoms: C_23  and  C_24 
REMARK   17  A    between atoms: C_27  and  O_28 
REMARK   18  A    between atoms: C_29  and  O_30 
ROOT
HETATM    1  C   UNL     1     -20.959  -8.202  -3.091  1.00  0.00     0.027 C 
ENDROOT
BRANCH   1   2
HETATM    2  C   UNL     1     -19.513  -8.465  -3.392  1.00  0.00    -0.030 C 
HETATM    3  C   UNL     1     -18.781  -9.399  -2.766  1.00  0.00    -0.027 C 
BRANCH   3   4
HETATM    4  C   UNL     1     -17.352  -9.702  -3.100  1.00  0.00     0.053 C 
BRANCH   4   5
HETATM    5  C   UNL     1     -17.248 -10.775  -4.140  1.00  0.00    -0.027 C 
HETATM    6  C   UNL     1     -16.322 -10.787  -5.113  1.00  0.00    -0.027 C 
BRANCH   6   7
HETATM    7  C   UNL     1     -16.225 -11.860  -6.155  1.00  0.00     0.053 C 
BRANCH   7   8
HETATM    8  C   UNL     1     -17.570 -12.448  -6.448  1.00  0.00    -0.027 C 
HETATM    9  C   UNL     1     -18.496 -11.880  -7.237  1.00  0.00    -0.027 C 
BRANCH   9  10
HETATM   10  C   UNL     1     -19.846 -12.484  -7.479  1.00  0.00     0.053 C 
BRANCH  10  11
HETATM   11  C   UNL     1     -20.487 -12.907  -6.192  1.00  0.00    -0.027 C 
HETATM   12  C   UNL     1     -21.516 -12.260  -5.623  1.00  0.00    -0.030 C 
BRANCH  12  13
HETATM   13  C   UNL     1     -22.144 -12.680  -4.328  1.00  0.00     0.027 C 
BRANCH  13  14
HETATM   14  C   UNL     1     -22.695 -11.473  -3.570  1.00  0.00     0.004 C 
BRANCH  14  15
HETATM   15  C   UNL     1     -22.303 -11.537  -2.095  1.00  0.00    -0.000 C 
BRANCH  15  16
HETATM   16  C   UNL     1     -23.168 -10.604  -1.250  1.00  0.00    -0.005 C 
HETATM   17  C   UNL     1     -23.833 -11.359  -0.112  1.00  0.00     0.005 C 
ENDBRANCH  15  16
ENDBRANCH  14  15
ENDBRANCH  13  14
ENDBRANCH  12  13
ENDBRANCH  10  11
ENDBRANCH   9  10
ENDBRANCH   7   8
ENDBRANCH   6   7
ENDBRANCH   4   5
ENDBRANCH   3   4
ENDBRANCH   1   2
BRANCH   1  18
HETATM   18  C   UNL     1     -21.798  -8.087  -4.365  1.00  0.00     0.013 C 
BRANCH  18  19
HETATM   19  C   UNL     1     -21.012  -7.604  -5.589  1.00  0.00     0.103 C 
BRANCH  19  20
HETATM   20  C   UNL     1     -21.430  -6.201  -5.984  1.00  0.00     0.217 C 
HETATM   21  O   UNL     1     -22.539  -5.737  -5.735  1.00  0.00    -0.274 OA
HETATM   22  N   UNL     1     -20.461  -5.501  -6.666  1.00  0.00    -0.357 N 
HETATM   23  H   UNL     1     -19.546  -5.910  -6.804  1.00  0.00     0.162 HD
BRANCH  22  24
HETATM   24  C   UNL     1     -20.688  -4.148  -7.129  1.00  0.00     0.161 C 
BRANCH  24  25
HETATM   25  C   UNL     1     -21.015  -4.087  -8.600  1.00  0.00    -0.038 A 
HETATM   26  C   UNL     1     -20.068  -4.506  -9.541  1.00  0.00     0.012 A 
HETATM   27  C   UNL     1     -20.343  -4.443 -10.903  1.00  0.00     0.040 A 
HETATM   28  C   UNL     1     -21.579  -3.961 -11.351  1.00  0.00     0.099 A 
HETATM   29  C   UNL     1     -22.550  -3.538 -10.433  1.00  0.00     0.101 A 
HETATM   30  C   UNL     1     -22.255  -3.612  -9.061  1.00  0.00     0.048 A 
BRANCH  28  31
HETATM   31  O   UNL     1     -21.800  -3.921 -12.700  1.00  0.00    -0.358 OA
HETATM   32  H   UNL     1     -22.369  -4.668 -12.949  1.00  0.00     0.217 HD
ENDBRANCH  28  31
BRANCH  29  33
HETATM   33  O   UNL     1     -23.798  -3.037 -10.696  1.00  0.00    -0.353 OA
HETATM   34  C   UNL     1     -24.887  -3.538  -9.926  1.00  0.00     0.210 C 
ENDBRANCH  29  33
ENDBRANCH  24  25
ENDBRANCH  22  24
ENDBRANCH  19  20
ENDBRANCH  18  19
ENDBRANCH   1  18
TORSDOF 18
ENDMDL
MODEL 8
REMARK VINA RESULT:      -7.1      3.264      8.390
REMARK  18 active torsions:
REMARK  status: ('A' for Active; 'I' for Inactive)
REMARK    1  A    between atoms: C_2  and  C_3 
REMARK    2  A    between atoms: C_3  and  C_4 
REMARK    3  A    between atoms: C_4  and  C_5 
REMARK    4  A    between atoms: C_5  and  C_6 
REMARK    5  A    between atoms: C_7  and  C_8 
REMARK    6  A    between atoms: C_8  and  C_9 
REMARK    7  A    between atoms: C_10  and  C_11 
REMARK    8  A    between atoms: C_11  and  C_12 
REMARK    9  A    between atoms: C_13  and  C_14 
REMARK   10  A    between atoms: C_14  and  C_15 
REMARK   11  A    between atoms: C_16  and  C_17 
REMARK   12  A    between atoms: C_17  and  C_18 
REMARK   13  A    between atoms: C_18  and  C_19 
REMARK   14  A    between atoms: C_19  and  C_20 
REMARK       I    between atoms: C_20  and  N_22 
REMARK   15  A    between atoms: N_22  and  C_23 
REMARK   16  A    between atoms: C_23  and  C_24 
REMARK   17  A    between atoms: C_27  and  O_28 
REMARK   18  A    between atoms: C_29  and  O_30 
ROOT
HETATM    1  C   UNL     1     -24.004 -11.873  -0.293  1.00  0.00     0.027 C 
ENDROOT
BRANCH   1   2
HETATM    2  C   UNL     1     -23.958 -10.397  -0.031  1.00  0.00    -0.030 C 
HETATM    3  C   UNL     1     -22.819  -9.708   0.139  1.00  0.00    -0.027 C 
BRANCH   3   4
HETATM    4  C   UNL     1     -22.765  -8.224   0.348  1.00  0.00     0.053 C 
BRANCH   4   5
HETATM    5  C   UNL     1     -21.966  -7.550  -0.725  1.00  0.00    -0.027 C 
HETATM    6  C   UNL     1     -22.311  -6.382  -1.292  1.00  0.00    -0.027 C 
BRANCH   6   7
HETATM    7  C   UNL     1     -21.512  -5.713  -2.369  1.00  0.00     0.053 C 
BRANCH   7   8
HETATM    8  C   UNL     1     -21.650  -6.440  -3.671  1.00  0.00    -0.027 C 
HETATM    9  C   UNL     1     -20.988  -6.125  -4.795  1.00  0.00    -0.027 C 
BRANCH   9  10
HETATM   10  C   UNL     1     -21.178  -6.857  -6.089  1.00  0.00     0.053 C 
BRANCH  10  11
HETATM   11  C   UNL     1     -21.024  -5.933  -7.259  1.00  0.00    -0.027 C 
HETATM   12  C   UNL     1     -20.118  -4.944  -7.315  1.00  0.00    -0.030 C 
BRANCH  12  13
HETATM   13  C   UNL     1     -19.978  -4.014  -8.482  1.00  0.00     0.027 C 
BRANCH  13  14
HETATM   14  C   UNL     1     -20.134  -4.764  -9.803  1.00  0.00     0.004 C 
BRANCH  14  15
HETATM   15  C   UNL     1     -20.371  -3.789 -10.953  1.00  0.00    -0.000 C 
BRANCH  15  16
HETATM   16  C   UNL     1     -21.821  -3.313 -10.988  1.00  0.00    -0.005 C 
HETATM   17  C   UNL     1     -22.773  -4.434 -10.605  1.00  0.00     0.005 C 
ENDBRANCH  15  16
ENDBRANCH  14  15
ENDBRANCH  13  14
ENDBRANCH  12  13
ENDBRANCH  10  11
ENDBRANCH   9  10
ENDBRANCH   7   8
ENDBRANCH   6   7
ENDBRANCH   4   5
ENDBRANCH   3   4
ENDBRANCH   1   2
BRANCH   1  18
HETATM   18  C   UNL     1     -22.856 -12.614   0.395  1.00  0.00     0.013 C 
BRANCH  18  19
HETATM   19  C   UNL     1     -22.229 -13.723  -0.457  1.00  0.00     0.103 C 
BRANCH  19  20
HETATM   20  C   UNL     1     -20.799 -13.380  -0.829  1.00  0.00     0.217 C 
HETATM   21  O   UNL     1     -20.070 -14.140  -1.458  1.00  0.00    -0.274 OA
HETATM   22  N   UNL     1     -20.388 -12.146  -0.380  1.00  0.00    -0.357 N 
HETATM   23  H   UNL     1     -21.043 -11.536   0.092  1.00  0.00     0.162 HD
BRANCH  22  24
HETATM   24  C   UNL     1     -19.050 -11.655  -0.635  1.00  0.00     0.161 C 
BRANCH  24  25
HETATM   25  C   UNL     1     -18.914 -11.025  -1.999  1.00  0.00    -0.038 A 
HETATM   26  C   UNL     1     -19.800 -10.016  -2.390  1.00  0.00     0.012 A 
HETATM   27  C   UNL     1     -19.702  -9.433  -3.650  1.00  0.00     0.040 A 
HETATM   28  C   UNL     1     -18.706  -9.847  -4.543  1.00  0.00     0.099 A 
HETATM   29  C   UNL     1     -17.801 -10.852  -4.178  1.00  0.00     0.101 A 
HETATM   30  C   UNL     1     -17.914 -11.428  -2.901  1.00  0.00     0.048 A 
BRANCH  28  31
HETATM   31  O   UNL     1     -18.652  -9.240  -5.767  1.00  0.00    -0.358 OA
HETATM   32  H   UNL     1     -18.527  -8.286  -5.641  1.00  0.00     0.217 HD
ENDBRANCH  28  31
BRANCH  29  33
HETATM   33  O   UNL     1     -16.780 -11.379  -4.925  1.00  0.00    -0.353 OA
HETATM   34  C   UNL     1     -16.439 -12.746  -4.708  1.00  0.00     0.210 C 
ENDBRANCH  29  33
ENDBRANCH  24  25
ENDBRANCH  22  24
ENDBRANCH  19  20
ENDBRANCH  18  19
ENDBRANCH   1  18
TORSDOF 18
ENDMDL
MODEL 9
REMARK VINA RESULT:      -7.1     12.940     16.652
REMARK  18 active torsions:
REMARK  status: ('A' for Active; 'I' for Inactive)
REMARK    1  A    between atoms: C_2  and  C_3 
REMARK    2  A    between atoms: C_3  and  C_4 
REMARK    3  A    between atoms: C_4  and  C_5 
REMARK    4  A    between atoms: C_5  and  C_6 
REMARK    5  A    between atoms: C_7  and  C_8 
REMARK    6  A    between atoms: C_8  and  C_9 
REMARK    7  A    between atoms: C_10  and  C_11 
REMARK    8  A    between atoms: C_11  and  C_12 
REMARK    9  A    between atoms: C_13  and  C_14 
REMARK   10  A    between atoms: C_14  and  C_15 
REMARK   11  A    between atoms: C_16  and  C_17 
REMARK   12  A    between atoms: C_17  and  C_18 
REMARK   13  A    between atoms: C_18  and  C_19 
REMARK   14  A    between atoms: C_19  and  C_20 
REMARK       I    between atoms: C_20  and  N_22 
REMARK   15  A    between atoms: N_22  and  C_23 
REMARK   16  A    between atoms: C_23  and  C_24 
REMARK   17  A    between atoms: C_27  and  O_28 
REMARK   18  A    between atoms: C_29  and  O_30 
ROOT
HETATM    1  C   UNL     1     -35.389  -0.895 -16.660  1.00  0.00     0.027 C 
ENDROOT
BRANCH   1   2
HETATM    2  C   UNL     1     -34.986  -2.289 -16.282  1.00  0.00    -0.030 C 
HETATM    3  C   UNL     1     -33.959  -2.944 -16.845  1.00  0.00    -0.027 C 
BRANCH   3   4
HETATM    4  C   UNL     1     -33.519  -4.317 -16.434  1.00  0.00     0.053 C 
BRANCH   4   5
HETATM    5  C   UNL     1     -32.085  -4.561 -16.789  1.00  0.00    -0.027 C 
HETATM    6  C   UNL     1     -31.338  -3.711 -17.515  1.00  0.00    -0.027 C 
BRANCH   6   7
HETATM    7  C   UNL     1     -29.905  -3.961 -17.873  1.00  0.00     0.053 C 
BRANCH   7   8
HETATM    8  C   UNL     1     -29.150  -4.521 -16.707  1.00  0.00    -0.027 C 
HETATM    9  C   UNL     1     -28.652  -5.766 -16.647  1.00  0.00    -0.027 C 
BRANCH   9  10
HETATM   10  C   UNL     1     -27.930  -6.301 -15.448  1.00  0.00     0.053 C 
BRANCH  10  11
HETATM   11  C   UNL     1     -26.630  -6.936 -15.839  1.00  0.00    -0.027 C 
HETATM   12  C   UNL     1     -25.855  -6.493 -16.841  1.00  0.00    -0.030 C 
BRANCH  12  13
HETATM   13  C   UNL     1     -24.563  -7.141 -17.237  1.00  0.00     0.027 C 
BRANCH  13  14
HETATM   14  C   UNL     1     -24.343  -7.047 -18.746  1.00  0.00     0.004 C 
BRANCH  14  15
HETATM   15  C   UNL     1     -25.634  -6.643 -19.455  1.00  0.00    -0.000 C 
BRANCH  15  16
HETATM   16  C   UNL     1     -25.437  -6.571 -20.968  1.00  0.00    -0.005 C 
HETATM   17  C   UNL     1     -24.727  -7.811 -21.485  1.00  0.00     0.005 C 
ENDBRANCH  15  16
ENDBRANCH  14  15
ENDBRANCH  13  14
ENDBRANCH  12  13
ENDBRANCH  10  11
ENDBRANCH   9  10
ENDBRANCH   7   8
ENDBRANCH   6   7
ENDBRANCH   4   5
ENDBRANCH   3   4
ENDBRANCH   1   2
BRANCH   1  18
HETATM   18  C   UNL     1     -36.539  -0.376 -15.794  1.00  0.00     0.013 C 
BRANCH  18  19
HETATM   19  C   UNL     1     -36.084   0.376 -14.538  1.00  0.00     0.103 C 
BRANCH  19  20
HETATM   20  C   UNL     1     -36.464  -0.386 -13.282  1.00  0.00     0.217 C 
HETATM   21  O   UNL     1     -37.627  -0.554 -12.926  1.00  0.00    -0.274 OA
HETATM   22  N   UNL     1     -35.386  -0.855 -12.567  1.00  0.00    -0.357 N 
HETATM   23  H   UNL     1     -34.449  -0.732 -12.928  1.00  0.00     0.162 HD
BRANCH  22  24
HETATM   24  C   UNL     1     -35.559  -1.597 -11.336  1.00  0.00     0.161 C 
BRANCH  24  25
HETATM   25  C   UNL     1     -34.781  -2.888 -11.324  1.00  0.00    -0.038 A 
HETATM   26  C   UNL     1     -33.452  -2.904 -11.761  1.00  0.00     0.012 A 
HETATM   27  C   UNL     1     -32.721  -4.087 -11.773  1.00  0.00     0.040 A 
HETATM   28  C   UNL     1     -33.307  -5.283 -11.340  1.00  0.00     0.099 A 
HETATM   29  C   UNL     1     -34.635  -5.298 -10.892  1.00  0.00     0.101 A 
HETATM   30  C   UNL     1     -35.357  -4.093 -10.885  1.00  0.00     0.048 A 
BRANCH  28  31
HETATM   31  O   UNL     1     -32.545  -6.418 -11.370  1.00  0.00    -0.358 OA
HETATM   32  H   UNL     1     -31.626  -6.186 -11.157  1.00  0.00     0.217 HD
ENDBRANCH  28  31
BRANCH  29  33
HETATM   33  O   UNL     1     -35.361  -6.371 -10.445  1.00  0.00    -0.353 OA
HETATM   34  C   UNL     1     -34.687  -7.338  -9.643  1.00  0.00     0.210 C 
ENDBRANCH  29  33
ENDBRANCH  24  25
ENDBRANCH  22  24
ENDBRANCH  19  20
ENDBRANCH  18  19
ENDBRANCH   1  18
TORSDOF 18
ENDMDL
