REMARK  10 active torsions:
REMARK  status: ('A' for Active; 'I' for Inactive)
REMARK    1  A    between atoms: O_2  and  C_3 
REMARK    2  A    between atoms: C_5  and  C_6 
REMARK    3  A    between atoms: C_6  and  N_7 
REMARK       I    between atoms: N_7  and  C_8 
REMARK    4  A    between atoms: C_8  and  C_10 
REMARK    5  A    between atoms: C_10  and  C_11 
REMARK    6  A    between atoms: C_11  and  C_12 
REMARK    7  A    between atoms: C_12  and  C_13 
REMARK    8  A    between atoms: C_13  and  C_14 
REMARK    9  A    between atoms: C_15  and  C_16 
REMARK   10  A    between atoms: C_21  and  O_22 
ROOT
HETATM    1  N   UNL     1       1.095   5.114  -0.616  1.00  0.00    -0.357 N 
HETATM    2  C   UNL     1       0.391   6.075   0.068  1.00  0.00     0.217 C 
HETATM    3  O   UNL     1       0.923   7.018   0.646  1.00  0.00    -0.274 OA
HETATM    4  H   UNL     1       0.612   4.321  -1.017  1.00  0.00     0.162 HD
ENDROOT
BRANCH   1   5
HETATM    5  C   UNL     1       2.537   5.149  -0.696  1.00  0.00     0.161 C 
BRANCH   5   6
HETATM    6  C   UNL     1       3.028   5.097  -2.121  1.00  0.00    -0.038 A 
HETATM    7  C   UNL     1       2.695   6.117  -3.034  1.00  0.00     0.048 A 
HETATM    8  C   UNL     1       3.197   6.104  -4.341  1.00  0.00     0.101 A 
HETATM    9  C   UNL     1       4.041   5.054  -4.728  1.00  0.00     0.099 A 
HETATM   10  C   UNL     1       4.383   4.040  -3.835  1.00  0.00     0.040 A 
HETATM   11  C   UNL     1       3.878   4.063  -2.535  1.00  0.00     0.012 A 
BRANCH   8  12
HETATM   12  O   UNL     1       2.937   7.054  -5.294  1.00  0.00    -0.353 OA
HETATM   13  C   UNL     1       2.093   8.135  -4.926  1.00  0.00     0.210 C 
ENDBRANCH   8  12
BRANCH   9  14
HETATM   14  O   UNL     1       4.542   5.030  -6.003  1.00  0.00    -0.358 OA
HETATM   15  H   UNL     1       5.106   4.248  -6.108  1.00  0.00     0.217 HD
ENDBRANCH   9  14
ENDBRANCH   5   6
ENDBRANCH   1   5
BRANCH   2  16
HETATM   16  C   UNL     1      -1.109   5.854   0.070  1.00  0.00     0.103 C 
BRANCH  16  17
HETATM   17  C   UNL     1      -1.880   7.172   0.107  1.00  0.00     0.010 C 
BRANCH  17  18
HETATM   18  C   UNL     1      -1.613   8.029  -1.134  1.00  0.00     0.004 C 
BRANCH  18  19
HETATM   19  C   UNL     1      -2.396   9.341  -1.073  1.00  0.00     0.027 C 
BRANCH  19  20
HETATM   20  C   UNL     1      -2.121  10.184  -2.284  1.00  0.00    -0.030 C 
HETATM   21  C   UNL     1      -3.072  10.575  -3.145  1.00  0.00    -0.027 C 
BRANCH  21  22
HETATM   22  C   UNL     1      -2.800  11.415  -4.370  1.00  0.00    -0.001 C 
HETATM   23  C   UNL     1      -3.230  10.663  -5.628  1.00  0.00     0.013 C 
HETATM   24  C   UNL     1      -3.531  12.752  -4.266  1.00  0.00     0.013 C 
ENDBRANCH  21  22
ENDBRANCH  19  20
ENDBRANCH  18  19
ENDBRANCH  17  18
ENDBRANCH  16  17
ENDBRANCH   2  16
TORSDOF 10
