MODEL 1
REMARK VINA RESULT:      -8.4      0.000      0.000
REMARK  10 active torsions:
REMARK  status: ('A' for Active; 'I' for Inactive)
REMARK    1  A    between atoms: O_2  and  C_3 
REMARK    2  A    between atoms: C_5  and  C_6 
REMARK    3  A    between atoms: C_6  and  N_7 
REMARK       I    between atoms: N_7  and  C_8 
REMARK    4  A    between atoms: C_8  and  C_10 
REMARK    5  A    between atoms: C_10  and  C_11 
REMARK    6  A    between atoms: C_11  and  C_12 
REMARK    7  A    between atoms: C_12  and  C_13 
REMARK    8  A    between atoms: C_13  and  C_14 
REMARK    9  A    between atoms: C_15  and  C_16 
REMARK   10  A    between atoms: C_21  and  O_22 
ROOT
HETATM    1  N   UNL     1     -20.944  -4.796  -7.873  1.00  0.00    -0.357 N 
HETATM    2  C   UNL     1     -19.938  -4.778  -6.938  1.00  0.00     0.217 C 
HETATM    3  O   UNL     1     -18.775  -4.490  -7.204  1.00  0.00    -0.274 OA
HETATM    4  H   UNL     1     -21.872  -5.106  -7.613  1.00  0.00     0.162 HD
ENDROOT
BRANCH   1   5
HETATM    5  C   UNL     1     -20.693  -4.477  -9.259  1.00  0.00     0.161 C 
BRANCH   5   6
HETATM    6  C   UNL     1     -21.943  -4.033  -9.976  1.00  0.00    -0.038 A 
HETATM    7  C   UNL     1     -21.862  -3.283 -11.165  1.00  0.00     0.048 A 
HETATM    8  C   UNL     1     -23.018  -2.919 -11.866  1.00  0.00     0.101 A 
HETATM    9  C   UNL     1     -24.264  -3.316 -11.362  1.00  0.00     0.099 A 
HETATM   10  C   UNL     1     -24.360  -4.063 -10.189  1.00  0.00     0.040 A 
HETATM   11  C   UNL     1     -23.202  -4.420  -9.499  1.00  0.00     0.012 A 
BRANCH   8  12
HETATM   12  O   UNL     1     -23.038  -2.200 -13.033  1.00  0.00    -0.353 OA
HETATM   13  C   UNL     1     -22.872  -2.918 -14.246  1.00  0.00     0.210 C 
ENDBRANCH   8  12
BRANCH   9  14
HETATM   14  O   UNL     1     -25.404  -2.970 -12.039  1.00  0.00    -0.358 OA
HETATM   15  H   UNL     1     -25.307  -3.219 -12.972  1.00  0.00     0.217 HD
ENDBRANCH   9  14
ENDBRANCH   5   6
ENDBRANCH   1   5
BRANCH   2  16
HETATM   16  C   UNL     1     -20.386  -5.172  -5.544  1.00  0.00     0.103 C 
BRANCH  16  17
HETATM   17  C   UNL     1     -21.728  -5.900  -5.561  1.00  0.00     0.010 C 
BRANCH  17  18
HETATM   18  C   UNL     1     -21.804  -6.989  -4.486  1.00  0.00     0.004 C 
BRANCH  18  19
HETATM   19  C   UNL     1     -21.418  -6.434  -3.115  1.00  0.00     0.027 C 
BRANCH  19  20
HETATM   20  C   UNL     1     -21.729  -7.424  -2.031  1.00  0.00    -0.030 C 
HETATM   21  C   UNL     1     -22.348  -7.099  -0.886  1.00  0.00    -0.027 C 
BRANCH  21  22
HETATM   22  C   UNL     1     -22.654  -8.089   0.212  1.00  0.00    -0.001 C 
HETATM   23  C   UNL     1     -22.921  -9.470  -0.385  1.00  0.00     0.013 C 
HETATM   24  C   UNL     1     -21.498  -8.148   1.208  1.00  0.00     0.013 C 
ENDBRANCH  21  22
ENDBRANCH  19  20
ENDBRANCH  18  19
ENDBRANCH  17  18
ENDBRANCH  16  17
ENDBRANCH   2  16
TORSDOF 10
ENDMDL
MODEL 2
REMARK VINA RESULT:      -8.2      1.398      2.257
REMARK  10 active torsions:
REMARK  status: ('A' for Active; 'I' for Inactive)
REMARK    1  A    between atoms: O_2  and  C_3 
REMARK    2  A    between atoms: C_5  and  C_6 
REMARK    3  A    between atoms: C_6  and  N_7 
REMARK       I    between atoms: N_7  and  C_8 
REMARK    4  A    between atoms: C_8  and  C_10 
REMARK    5  A    between atoms: C_10  and  C_11 
REMARK    6  A    between atoms: C_11  and  C_12 
REMARK    7  A    between atoms: C_12  and  C_13 
REMARK    8  A    between atoms: C_13  and  C_14 
REMARK    9  A    between atoms: C_15  and  C_16 
REMARK   10  A    between atoms: C_21  and  O_22 
ROOT
HETATM    1  N   UNL     1     -21.069  -5.189  -6.991  1.00  0.00    -0.357 N 
HETATM    2  C   UNL     1     -20.531  -6.387  -6.585  1.00  0.00     0.217 C 
HETATM    3  O   UNL     1     -19.457  -6.817  -6.994  1.00  0.00    -0.274 OA
HETATM    4  H   UNL     1     -21.990  -4.914  -6.674  1.00  0.00     0.162 HD
ENDROOT
BRANCH   1   5
HETATM    5  C   UNL     1     -20.394  -4.345  -7.949  1.00  0.00     0.161 C 
BRANCH   5   6
HETATM    6  C   UNL     1     -21.119  -4.294  -9.271  1.00  0.00    -0.038 A 
HETATM    7  C   UNL     1     -22.526  -4.248  -9.318  1.00  0.00     0.048 A 
HETATM    8  C   UNL     1     -23.201  -4.140 -10.540  1.00  0.00     0.101 A 
HETATM    9  C   UNL     1     -22.450  -4.078 -11.721  1.00  0.00     0.099 A 
HETATM   10  C   UNL     1     -21.057  -4.118 -11.691  1.00  0.00     0.040 A 
HETATM   11  C   UNL     1     -20.395  -4.224 -10.468  1.00  0.00     0.012 A 
BRANCH   8  12
HETATM   12  O   UNL     1     -24.563  -4.080 -10.684  1.00  0.00    -0.353 OA
HETATM   13  C   UNL     1     -25.278  -3.236  -9.794  1.00  0.00     0.210 C 
ENDBRANCH   8  12
BRANCH   9  14
HETATM   14  O   UNL     1     -23.098  -3.970 -12.924  1.00  0.00    -0.358 OA
HETATM   15  H   UNL     1     -23.000  -3.064 -13.257  1.00  0.00     0.217 HD
ENDBRANCH   9  14
ENDBRANCH   5   6
ENDBRANCH   1   5
BRANCH   2  16
HETATM   16  C   UNL     1     -21.398  -7.149  -5.602  1.00  0.00     0.103 C 
BRANCH  16  17
HETATM   17  C   UNL     1     -21.867  -6.263  -4.449  1.00  0.00     0.010 C 
BRANCH  17  18
HETATM   18  C   UNL     1     -21.368  -6.773  -3.094  1.00  0.00     0.004 C 
BRANCH  18  19
HETATM   19  C   UNL     1     -22.094  -6.073  -1.944  1.00  0.00     0.027 C 
BRANCH  19  20
HETATM   20  C   UNL     1     -22.439  -7.048  -0.857  1.00  0.00    -0.030 C 
HETATM   21  C   UNL     1     -21.929  -8.287  -0.785  1.00  0.00    -0.027 C 
BRANCH  21  22
HETATM   22  C   UNL     1     -22.281  -9.276   0.301  1.00  0.00    -0.001 C 
HETATM   23  C   UNL     1     -23.421 -10.180  -0.163  1.00  0.00     0.013 C 
HETATM   24  C   UNL     1     -21.054 -10.105   0.676  1.00  0.00     0.013 C 
ENDBRANCH  21  22
ENDBRANCH  19  20
ENDBRANCH  18  19
ENDBRANCH  17  18
ENDBRANCH  16  17
ENDBRANCH   2  16
TORSDOF 10
ENDMDL
MODEL 3
REMARK VINA RESULT:      -7.8      1.692      2.550
REMARK  10 active torsions:
REMARK  status: ('A' for Active; 'I' for Inactive)
REMARK    1  A    between atoms: O_2  and  C_3 
REMARK    2  A    between atoms: C_5  and  C_6 
REMARK    3  A    between atoms: C_6  and  N_7 
REMARK       I    between atoms: N_7  and  C_8 
REMARK    4  A    between atoms: C_8  and  C_10 
REMARK    5  A    between atoms: C_10  and  C_11 
REMARK    6  A    between atoms: C_11  and  C_12 
REMARK    7  A    between atoms: C_12  and  C_13 
REMARK    8  A    between atoms: C_13  and  C_14 
REMARK    9  A    between atoms: C_15  and  C_16 
REMARK   10  A    between atoms: C_21  and  O_22 
ROOT
HETATM    1  N   UNL     1     -20.193  -5.645  -6.894  1.00  0.00    -0.357 N 
HETATM    2  C   UNL     1     -20.541  -6.134  -5.658  1.00  0.00     0.217 C 
HETATM    3  O   UNL     1     -21.140  -5.473  -4.815  1.00  0.00    -0.274 OA
HETATM    4  H   UNL     1     -19.640  -6.210  -7.525  1.00  0.00     0.162 HD
ENDROOT
BRANCH   1   5
HETATM    5  C   UNL     1     -20.511  -4.292  -7.287  1.00  0.00     0.161 C 
BRANCH   5   6
HETATM    6  C   UNL     1     -20.912  -4.202  -8.738  1.00  0.00    -0.038 A 
HETATM    7  C   UNL     1     -22.177  -3.703  -9.105  1.00  0.00     0.048 A 
HETATM    8  C   UNL     1     -22.531  -3.561 -10.452  1.00  0.00     0.101 A 
HETATM    9  C   UNL     1     -21.600  -3.927 -11.435  1.00  0.00     0.099 A 
HETATM   10  C   UNL     1     -20.343  -4.418 -11.088  1.00  0.00     0.040 A 
HETATM   11  C   UNL     1     -20.001  -4.554  -9.742  1.00  0.00     0.012 A 
BRANCH   8  12
HETATM   12  O   UNL     1     -23.731  -3.078 -10.905  1.00  0.00    -0.353 OA
HETATM   13  C   UNL     1     -24.894  -3.425 -10.169  1.00  0.00     0.210 C 
ENDBRANCH   8  12
BRANCH   9  14
HETATM   14  O   UNL     1     -21.932  -3.791 -12.757  1.00  0.00    -0.358 OA
HETATM   15  H   UNL     1     -22.176  -4.659 -13.114  1.00  0.00     0.217 HD
ENDBRANCH   9  14
ENDBRANCH   5   6
ENDBRANCH   1   5
BRANCH   2  16
HETATM   16  C   UNL     1     -20.094  -7.562  -5.413  1.00  0.00     0.103 C 
BRANCH  16  17
HETATM   17  C   UNL     1     -21.277  -8.495  -5.162  1.00  0.00     0.010 C 
BRANCH  17  18
HETATM   18  C   UNL     1     -21.180  -9.193  -3.802  1.00  0.00     0.004 C 
BRANCH  18  19
HETATM   19  C   UNL     1     -19.953  -8.712  -3.025  1.00  0.00     0.027 C 
BRANCH  19  20
HETATM   20  C   UNL     1     -20.354  -8.127  -1.703  1.00  0.00    -0.030 C 
HETATM   21  C   UNL     1     -21.341  -8.623  -0.942  1.00  0.00    -0.027 C 
BRANCH  21  22
HETATM   22  C   UNL     1     -21.755  -8.032   0.384  1.00  0.00    -0.001 C 
HETATM   23  C   UNL     1     -23.266  -8.161   0.567  1.00  0.00     0.013 C 
HETATM   24  C   UNL     1     -21.014  -8.726   1.525  1.00  0.00     0.013 C 
ENDBRANCH  21  22
ENDBRANCH  19  20
ENDBRANCH  18  19
ENDBRANCH  17  18
ENDBRANCH  16  17
ENDBRANCH   2  16
TORSDOF 10
ENDMDL
MODEL 4
REMARK VINA RESULT:      -7.7      3.520     10.111
REMARK  10 active torsions:
REMARK  status: ('A' for Active; 'I' for Inactive)
REMARK    1  A    between atoms: O_2  and  C_3 
REMARK    2  A    between atoms: C_5  and  C_6 
REMARK    3  A    between atoms: C_6  and  N_7 
REMARK       I    between atoms: N_7  and  C_8 
REMARK    4  A    between atoms: C_8  and  C_10 
REMARK    5  A    between atoms: C_10  and  C_11 
REMARK    6  A    between atoms: C_11  and  C_12 
REMARK    7  A    between atoms: C_12  and  C_13 
REMARK    8  A    between atoms: C_13  and  C_14 
REMARK    9  A    between atoms: C_15  and  C_16 
REMARK   10  A    between atoms: C_21  and  O_22 
ROOT
HETATM    1  N   UNL     1     -21.258  -6.157  -3.329  1.00  0.00    -0.357 N 
HETATM    2  C   UNL     1     -21.700  -6.187  -4.629  1.00  0.00     0.217 C 
HETATM    3  O   UNL     1     -22.882  -6.298  -4.938  1.00  0.00    -0.274 OA
HETATM    4  H   UNL     1     -20.266  -6.132  -3.131  1.00  0.00     0.162 HD
ENDROOT
BRANCH   1   5
HETATM    5  C   UNL     1     -22.175  -6.262  -2.218  1.00  0.00     0.161 C 
BRANCH   5   6
HETATM    6  C   UNL     1     -21.846  -7.426  -1.318  1.00  0.00    -0.038 A 
HETATM    7  C   UNL     1     -21.057  -8.496  -1.786  1.00  0.00     0.048 A 
HETATM    8  C   UNL     1     -20.699  -9.550  -0.936  1.00  0.00     0.101 A 
HETATM    9  C   UNL     1     -21.140  -9.523   0.394  1.00  0.00     0.099 A 
HETATM   10  C   UNL     1     -21.918  -8.470   0.872  1.00  0.00     0.040 A 
HETATM   11  C   UNL     1     -22.268  -7.424   0.018  1.00  0.00     0.012 A 
BRANCH   8  12
HETATM   12  O   UNL     1     -19.930 -10.626  -1.297  1.00  0.00    -0.353 OA
HETATM   13  C   UNL     1     -19.843 -10.932  -2.681  1.00  0.00     0.210 C 
ENDBRANCH   8  12
BRANCH   9  14
HETATM   14  O   UNL     1     -20.795 -10.546   1.237  1.00  0.00    -0.358 OA
HETATM   15  H   UNL     1     -20.073 -11.056   0.838  1.00  0.00     0.217 HD
ENDBRANCH   9  14
ENDBRANCH   5   6
ENDBRANCH   1   5
BRANCH   2  16
HETATM   16  C   UNL     1     -20.590  -6.097  -5.658  1.00  0.00     0.103 C 
BRANCH  16  17
HETATM   17  C   UNL     1     -20.073  -4.668  -5.818  1.00  0.00     0.010 C 
BRANCH  17  18
HETATM   18  C   UNL     1     -20.786  -3.923  -6.950  1.00  0.00     0.004 C 
BRANCH  18  19
HETATM   19  C   UNL     1     -20.676  -4.692  -8.267  1.00  0.00     0.027 C 
BRANCH  19  20
HETATM   20  C   UNL     1     -21.952  -4.595  -9.051  1.00  0.00    -0.030 C 
HETATM   21  C   UNL     1     -22.186  -3.647  -9.971  1.00  0.00    -0.027 C 
BRANCH  21  22
HETATM   22  C   UNL     1     -23.471  -3.539 -10.755  1.00  0.00    -0.001 C 
HETATM   23  C   UNL     1     -23.617  -4.737 -11.692  1.00  0.00     0.013 C 
HETATM   24  C   UNL     1     -24.664  -3.451  -9.805  1.00  0.00     0.013 C 
ENDBRANCH  21  22
ENDBRANCH  19  20
ENDBRANCH  18  19
ENDBRANCH  17  18
ENDBRANCH  16  17
ENDBRANCH   2  16
TORSDOF 10
ENDMDL
MODEL 5
REMARK VINA RESULT:      -7.7      3.073     10.192
REMARK  10 active torsions:
REMARK  status: ('A' for Active; 'I' for Inactive)
REMARK    1  A    between atoms: O_2  and  C_3 
REMARK    2  A    between atoms: C_5  and  C_6 
REMARK    3  A    between atoms: C_6  and  N_7 
REMARK       I    between atoms: N_7  and  C_8 
REMARK    4  A    between atoms: C_8  and  C_10 
REMARK    5  A    between atoms: C_10  and  C_11 
REMARK    6  A    between atoms: C_11  and  C_12 
REMARK    7  A    between atoms: C_12  and  C_13 
REMARK    8  A    between atoms: C_13  and  C_14 
REMARK    9  A    between atoms: C_15  and  C_16 
REMARK   10  A    between atoms: C_21  and  O_22 
ROOT
HETATM    1  N   UNL     1     -21.073  -6.135  -5.263  1.00  0.00    -0.357 N 
HETATM    2  C   UNL     1     -20.235  -5.866  -6.318  1.00  0.00     0.217 C 
HETATM    3  O   UNL     1     -19.660  -6.738  -6.963  1.00  0.00    -0.274 OA
HETATM    4  H   UNL     1     -21.468  -5.377  -4.723  1.00  0.00     0.162 HD
ENDROOT
BRANCH   1   5
HETATM    5  C   UNL     1     -21.332  -7.490  -4.832  1.00  0.00     0.161 C 
BRANCH   5   6
HETATM    6  C   UNL     1     -21.632  -7.568  -3.356  1.00  0.00    -0.038 A 
HETATM    7  C   UNL     1     -21.521  -8.790  -2.664  1.00  0.00     0.048 A 
HETATM    8  C   UNL     1     -21.740  -8.856  -1.283  1.00  0.00     0.101 A 
HETATM    9  C   UNL     1     -22.074  -7.681  -0.597  1.00  0.00     0.099 A 
HETATM   10  C   UNL     1     -22.183  -6.464  -1.267  1.00  0.00     0.040 A 
HETATM   11  C   UNL     1     -21.962  -6.408  -2.643  1.00  0.00     0.012 A 
BRANCH   8  12
HETATM   12  O   UNL     1     -21.647  -9.994  -0.524  1.00  0.00    -0.353 OA
HETATM   13  C   UNL     1     -20.367 -10.598  -0.407  1.00  0.00     0.210 C 
ENDBRANCH   8  12
BRANCH   9  14
HETATM   14  O   UNL     1     -22.289  -7.730   0.756  1.00  0.00    -0.358 OA
HETATM   15  H   UNL     1     -23.229  -7.575   0.934  1.00  0.00     0.217 HD
ENDBRANCH   9  14
ENDBRANCH   5   6
ENDBRANCH   1   5
BRANCH   2  16
HETATM   16  C   UNL     1     -20.060  -4.387  -6.602  1.00  0.00     0.103 C 
BRANCH  16  17
HETATM   17  C   UNL     1     -19.781  -4.119  -8.080  1.00  0.00     0.010 C 
BRANCH  17  18
HETATM   18  C   UNL     1     -20.998  -4.421  -8.959  1.00  0.00     0.004 C 
BRANCH  18  19
HETATM   19  C   UNL     1     -20.611  -4.453 -10.438  1.00  0.00     0.027 C 
BRANCH  19  20
HETATM   20  C   UNL     1     -21.782  -4.091 -11.304  1.00  0.00    -0.030 C 
HETATM   21  C   UNL     1     -21.970  -2.867 -11.821  1.00  0.00    -0.027 C 
BRANCH  21  22
HETATM   22  C   UNL     1     -23.151  -2.494 -12.685  1.00  0.00    -0.001 C 
HETATM   23  C   UNL     1     -22.885  -2.889 -14.136  1.00  0.00     0.013 C 
HETATM   24  C   UNL     1     -24.418  -3.170 -12.167  1.00  0.00     0.013 C 
ENDBRANCH  21  22
ENDBRANCH  19  20
ENDBRANCH  18  19
ENDBRANCH  17  18
ENDBRANCH  16  17
ENDBRANCH   2  16
TORSDOF 10
ENDMDL
MODEL 6
REMARK VINA RESULT:      -7.5      1.155      2.222
REMARK  10 active torsions:
REMARK  status: ('A' for Active; 'I' for Inactive)
REMARK    1  A    between atoms: O_2  and  C_3 
REMARK    2  A    between atoms: C_5  and  C_6 
REMARK    3  A    between atoms: C_6  and  N_7 
REMARK       I    between atoms: N_7  and  C_8 
REMARK    4  A    between atoms: C_8  and  C_10 
REMARK    5  A    between atoms: C_10  and  C_11 
REMARK    6  A    between atoms: C_11  and  C_12 
REMARK    7  A    between atoms: C_12  and  C_13 
REMARK    8  A    between atoms: C_13  and  C_14 
REMARK    9  A    between atoms: C_15  and  C_16 
REMARK   10  A    between atoms: C_21  and  O_22 
ROOT
HETATM    1  N   UNL     1     -20.858  -4.525  -8.592  1.00  0.00    -0.357 N 
HETATM    2  C   UNL     1     -19.979  -4.520  -7.536  1.00  0.00     0.217 C 
HETATM    3  O   UNL     1     -18.788  -4.245  -7.650  1.00  0.00    -0.274 OA
HETATM    4  H   UNL     1     -21.814  -4.824  -8.454  1.00  0.00     0.162 HD
ENDROOT
BRANCH   1   5
HETATM    5  C   UNL     1     -20.427  -4.206  -9.933  1.00  0.00     0.161 C 
BRANCH   5   6
HETATM    6  C   UNL     1     -21.584  -3.844 -10.830  1.00  0.00    -0.038 A 
HETATM    7  C   UNL     1     -22.882  -3.692 -10.304  1.00  0.00     0.048 A 
HETATM    8  C   UNL     1     -23.948  -3.299 -11.122  1.00  0.00     0.101 A 
HETATM    9  C   UNL     1     -23.701  -3.056 -12.480  1.00  0.00     0.099 A 
HETATM   10  C   UNL     1     -22.421  -3.197 -13.015  1.00  0.00     0.040 A 
HETATM   11  C   UNL     1     -21.366  -3.589 -12.191  1.00  0.00     0.012 A 
BRANCH   8  12
HETATM   12  O   UNL     1     -25.239  -3.117 -10.700  1.00  0.00    -0.353 OA
HETATM   13  C   UNL     1     -25.501  -3.273  -9.313  1.00  0.00     0.210 C 
ENDBRANCH   8  12
BRANCH   9  14
HETATM   14  O   UNL     1     -24.734  -2.667 -13.292  1.00  0.00    -0.358 OA
HETATM   15  H   UNL     1     -24.513  -1.815 -13.700  1.00  0.00     0.217 HD
ENDBRANCH   9  14
ENDBRANCH   5   6
ENDBRANCH   1   5
BRANCH   2  16
HETATM   16  C   UNL     1     -20.606  -4.912  -6.212  1.00  0.00     0.103 C 
BRANCH  16  17
HETATM   17  C   UNL     1     -20.352  -6.380  -5.873  1.00  0.00     0.010 C 
BRANCH  17  18
HETATM   18  C   UNL     1     -21.598  -7.060  -5.299  1.00  0.00     0.004 C 
BRANCH  18  19
HETATM   19  C   UNL     1     -21.279  -8.479  -4.825  1.00  0.00     0.027 C 
BRANCH  19  20
HETATM   20  C   UNL     1     -21.504  -8.611  -3.347  1.00  0.00    -0.030 C 
HETATM   21  C   UNL     1     -20.951  -7.794  -2.438  1.00  0.00    -0.027 C 
BRANCH  21  22
HETATM   22  C   UNL     1     -21.166  -7.929  -0.949  1.00  0.00    -0.001 C 
HETATM   23  C   UNL     1     -22.456  -7.221  -0.539  1.00  0.00     0.013 C 
HETATM   24  C   UNL     1     -21.213  -9.403  -0.554  1.00  0.00     0.013 C 
ENDBRANCH  21  22
ENDBRANCH  19  20
ENDBRANCH  18  19
ENDBRANCH  17  18
ENDBRANCH  16  17
ENDBRANCH   2  16
TORSDOF 10
ENDMDL
MODEL 7
REMARK VINA RESULT:      -7.5      3.527      9.852
REMARK  10 active torsions:
REMARK  status: ('A' for Active; 'I' for Inactive)
REMARK    1  A    between atoms: O_2  and  C_3 
REMARK    2  A    between atoms: C_5  and  C_6 
REMARK    3  A    between atoms: C_6  and  N_7 
REMARK       I    between atoms: N_7  and  C_8 
REMARK    4  A    between atoms: C_8  and  C_10 
REMARK    5  A    between atoms: C_10  and  C_11 
REMARK    6  A    between atoms: C_11  and  C_12 
REMARK    7  A    between atoms: C_12  and  C_13 
REMARK    8  A    between atoms: C_13  and  C_14 
REMARK    9  A    between atoms: C_15  and  C_16 
REMARK   10  A    between atoms: C_21  and  O_22 
ROOT
HETATM    1  N   UNL     1     -19.912  -7.485  -4.517  1.00  0.00    -0.357 N 
HETATM    2  C   UNL     1     -20.600  -7.492  -5.706  1.00  0.00     0.217 C 
HETATM    3  O   UNL     1     -21.331  -8.413  -6.057  1.00  0.00    -0.274 OA
HETATM    4  H   UNL     1     -19.270  -6.733  -4.308  1.00  0.00     0.162 HD
ENDROOT
BRANCH   1   5
HETATM    5  C   UNL     1     -20.003  -8.587  -3.587  1.00  0.00     0.161 C 
BRANCH   5   6
HETATM    6  C   UNL     1     -21.005  -8.323  -2.491  1.00  0.00    -0.038 A 
HETATM    7  C   UNL     1     -21.517  -9.382  -1.715  1.00  0.00     0.048 A 
HETATM    8  C   UNL     1     -22.402  -9.136  -0.658  1.00  0.00     0.101 A 
HETATM    9  C   UNL     1     -22.772  -7.812  -0.384  1.00  0.00     0.099 A 
HETATM   10  C   UNL     1     -22.270  -6.754  -1.139  1.00  0.00     0.040 A 
HETATM   11  C   UNL     1     -21.388  -7.010  -2.189  1.00  0.00     0.012 A 
BRANCH   8  12
HETATM   12  O   UNL     1     -22.944 -10.097   0.155  1.00  0.00    -0.353 OA
HETATM   13  C   UNL     1     -23.880 -10.992  -0.426  1.00  0.00     0.210 C 
ENDBRANCH   8  12
BRANCH   9  14
HETATM   14  O   UNL     1     -23.635  -7.556   0.649  1.00  0.00    -0.358 OA
HETATM   15  H   UNL     1     -23.295  -7.972   1.457  1.00  0.00     0.217 HD
ENDBRANCH   9  14
ENDBRANCH   5   6
ENDBRANCH   1   5
BRANCH   2  16
HETATM   16  C   UNL     1     -20.355  -6.268  -6.566  1.00  0.00     0.103 C 
BRANCH  16  17
HETATM   17  C   UNL     1     -20.561  -4.972  -5.785  1.00  0.00     0.010 C 
BRANCH  17  18
HETATM   18  C   UNL     1     -21.183  -3.872  -6.650  1.00  0.00     0.004 C 
BRANCH  18  19
HETATM   19  C   UNL     1     -22.427  -4.384  -7.378  1.00  0.00     0.027 C 
BRANCH  19  20
HETATM   20  C   UNL     1     -22.515  -3.805  -8.760  1.00  0.00    -0.030 C 
HETATM   21  C   UNL     1     -22.565  -4.551  -9.873  1.00  0.00    -0.027 C 
BRANCH  21  22
HETATM   22  C   UNL     1     -22.644  -3.973 -11.266  1.00  0.00    -0.001 C 
HETATM   23  C   UNL     1     -23.942  -3.187 -11.436  1.00  0.00     0.013 C 
HETATM   24  C   UNL     1     -21.435  -3.080 -11.536  1.00  0.00     0.013 C 
ENDBRANCH  21  22
ENDBRANCH  19  20
ENDBRANCH  18  19
ENDBRANCH  17  18
ENDBRANCH  16  17
ENDBRANCH   2  16
TORSDOF 10
ENDMDL
MODEL 8
REMARK VINA RESULT:      -7.2     13.018     15.021
REMARK  10 active torsions:
REMARK  status: ('A' for Active; 'I' for Inactive)
REMARK    1  A    between atoms: O_2  and  C_3 
REMARK    2  A    between atoms: C_5  and  C_6 
REMARK    3  A    between atoms: C_6  and  N_7 
REMARK       I    between atoms: N_7  and  C_8 
REMARK    4  A    between atoms: C_8  and  C_10 
REMARK    5  A    between atoms: C_10  and  C_11 
REMARK    6  A    between atoms: C_11  and  C_12 
REMARK    7  A    between atoms: C_12  and  C_13 
REMARK    8  A    between atoms: C_13  and  C_14 
REMARK    9  A    between atoms: C_15  and  C_16 
REMARK   10  A    between atoms: C_21  and  O_22 
ROOT
HETATM    1  N   UNL     1     -35.602  -0.583 -11.152  1.00  0.00    -0.357 N 
HETATM    2  C   UNL     1     -35.674  -1.845 -10.614  1.00  0.00     0.217 C 
HETATM    3  O   UNL     1     -36.703  -2.513 -10.598  1.00  0.00    -0.274 OA
HETATM    4  H   UNL     1     -34.746  -0.049 -11.078  1.00  0.00     0.162 HD
ENDROOT
BRANCH   1   5
HETATM    5  C   UNL     1     -36.757   0.054 -11.740  1.00  0.00     0.161 C 
BRANCH   5   6
HETATM    6  C   UNL     1     -36.803  -0.124 -13.237  1.00  0.00    -0.038 A 
HETATM    7  C   UNL     1     -35.654  -0.520 -13.949  1.00  0.00     0.048 A 
HETATM    8  C   UNL     1     -35.706  -0.743 -15.331  1.00  0.00     0.101 A 
HETATM    9  C   UNL     1     -36.926  -0.566 -15.996  1.00  0.00     0.099 A 
HETATM   10  C   UNL     1     -38.072  -0.178 -15.305  1.00  0.00     0.040 A 
HETATM   11  C   UNL     1     -38.010   0.041 -13.929  1.00  0.00     0.012 A 
BRANCH   8  12
HETATM   12  O   UNL     1     -34.646  -1.139 -16.105  1.00  0.00    -0.353 OA
HETATM   13  C   UNL     1     -34.625  -2.489 -16.544  1.00  0.00     0.210 C 
ENDBRANCH   8  12
BRANCH   9  14
HETATM   14  O   UNL     1     -36.992  -0.784 -17.347  1.00  0.00    -0.358 OA
HETATM   15  H   UNL     1     -36.098  -0.941 -17.688  1.00  0.00     0.217 HD
ENDBRANCH   9  14
ENDBRANCH   5   6
ENDBRANCH   1   5
BRANCH   2  16
HETATM   16  C   UNL     1     -34.371  -2.334 -10.014  1.00  0.00     0.103 C 
BRANCH  16  17
HETATM   17  C   UNL     1     -33.238  -2.343 -11.039  1.00  0.00     0.010 C 
BRANCH  17  18
HETATM   18  C   UNL     1     -33.510  -3.323 -12.185  1.00  0.00     0.004 C 
BRANCH  18  19
HETATM   19  C   UNL     1     -32.608  -4.553 -12.079  1.00  0.00     0.027 C 
BRANCH  19  20
HETATM   20  C   UNL     1     -33.188  -5.560 -11.129  1.00  0.00    -0.030 C 
HETATM   21  C   UNL     1     -34.205  -6.376 -11.445  1.00  0.00    -0.027 C 
BRANCH  21  22
HETATM   22  C   UNL     1     -34.799  -7.384 -10.491  1.00  0.00    -0.001 C 
HETATM   23  C   UNL     1     -33.766  -8.456 -10.150  1.00  0.00     0.013 C 
HETATM   24  C   UNL     1     -35.289  -6.686  -9.223  1.00  0.00     0.013 C 
ENDBRANCH  21  22
ENDBRANCH  19  20
ENDBRANCH  18  19
ENDBRANCH  17  18
ENDBRANCH  16  17
ENDBRANCH   2  16
TORSDOF 10
ENDMDL
MODEL 9
REMARK VINA RESULT:      -7.0      2.723      3.753
REMARK  10 active torsions:
REMARK  status: ('A' for Active; 'I' for Inactive)
REMARK    1  A    between atoms: O_2  and  C_3 
REMARK    2  A    between atoms: C_5  and  C_6 
REMARK    3  A    between atoms: C_6  and  N_7 
REMARK       I    between atoms: N_7  and  C_8 
REMARK    4  A    between atoms: C_8  and  C_10 
REMARK    5  A    between atoms: C_10  and  C_11 
REMARK    6  A    between atoms: C_11  and  C_12 
REMARK    7  A    between atoms: C_12  and  C_13 
REMARK    8  A    between atoms: C_13  and  C_14 
REMARK    9  A    between atoms: C_15  and  C_16 
REMARK   10  A    between atoms: C_21  and  O_22 
ROOT
HETATM    1  N   UNL     1     -21.239  -5.486  -7.110  1.00  0.00    -0.357 N 
HETATM    2  C   UNL     1     -21.078  -5.436  -5.747  1.00  0.00     0.217 C 
HETATM    3  O   UNL     1     -20.276  -4.693  -5.189  1.00  0.00    -0.274 OA
HETATM    4  H   UNL     1     -21.865  -6.165  -7.522  1.00  0.00     0.162 HD
ENDROOT
BRANCH   1   5
HETATM    5  C   UNL     1     -20.454  -4.655  -7.994  1.00  0.00     0.161 C 
BRANCH   5   6
HETATM    6  C   UNL     1     -21.134  -4.439  -9.323  1.00  0.00    -0.038 A 
HETATM    7  C   UNL     1     -22.529  -4.261  -9.397  1.00  0.00     0.048 A 
HETATM    8  C   UNL     1     -23.157  -4.001 -10.621  1.00  0.00     0.101 A 
HETATM    9  C   UNL     1     -22.370  -3.921 -11.778  1.00  0.00     0.099 A 
HETATM   10  C   UNL     1     -20.988  -4.091 -11.720  1.00  0.00     0.040 A 
HETATM   11  C   UNL     1     -20.372  -4.348 -10.496  1.00  0.00     0.012 A 
BRANCH   8  12
HETATM   12  O   UNL     1     -24.503  -3.805 -10.790  1.00  0.00    -0.353 OA
HETATM   13  C   UNL     1     -25.217  -3.213  -9.715  1.00  0.00     0.210 C 
ENDBRANCH   8  12
BRANCH   9  14
HETATM   14  O   UNL     1     -22.971  -3.665 -12.982  1.00  0.00    -0.358 OA
HETATM   15  H   UNL     1     -23.180  -2.719 -13.038  1.00  0.00     0.217 HD
ENDBRANCH   9  14
ENDBRANCH   5   6
ENDBRANCH   1   5
BRANCH   2  16
HETATM   16  C   UNL     1     -21.964  -6.403  -4.987  1.00  0.00     0.103 C 
BRANCH  16  17
HETATM   17  C   UNL     1     -21.172  -7.584  -4.428  1.00  0.00     0.010 C 
BRANCH  17  18
HETATM   18  C   UNL     1     -21.591  -7.930  -2.996  1.00  0.00     0.004 C 
BRANCH  18  19
HETATM   19  C   UNL     1     -20.416  -8.508  -2.206  1.00  0.00     0.027 C 
BRANCH  19  20
HETATM   20  C   UNL     1     -19.259  -8.810  -3.114  1.00  0.00    -0.030 C 
HETATM   21  C   UNL     1     -18.137  -9.421  -2.705  1.00  0.00    -0.027 C 
BRANCH  21  22
HETATM   22  C   UNL     1     -16.966  -9.718  -3.611  1.00  0.00    -0.001 C 
HETATM   23  C   UNL     1     -15.778 -10.213  -2.788  1.00  0.00     0.013 C 
HETATM   24  C   UNL     1     -17.362 -10.754  -4.661  1.00  0.00     0.013 C 
ENDBRANCH  21  22
ENDBRANCH  19  20
ENDBRANCH  18  19
ENDBRANCH  17  18
ENDBRANCH  16  17
ENDBRANCH   2  16
TORSDOF 10
ENDMDL
